
     RDKit          3D

 37 37  0  0  0  0  0  0  0  0999 V2000
    0.0272    0.6695    1.7758 S   0  0  0  0  0  2  0  0  0  0  0  0
   -0.4381   -0.9976    2.9894 Si  0  0  0  0  0  4  0  0  0  0  0  0
   -0.6624   -2.1574    2.0820 H   0  0  0  0  0  0  0  0  0  0  0  0
   -1.7359   -0.8319    3.7052 H   0  0  0  0  0  0  0  0  0  0  0  0
    1.5038    1.9577    2.5830 Si  0  0  0  0  0  4  0  0  0  0  0  0
    2.5507    2.2004    1.5495 H   0  0  0  0  0  0  0  0  0  0  0  0
    2.1913    1.3955    3.7400 H   0  0  0  0  0  0  0  0  0  0  0  0
    0.5338    3.9021    3.1209 Si  0  0  0  0  0  4  0  0  0  0  0  0
    0.9724    4.4597    5.2426 Si  0  0  0  0  0  4  0  0  0  0  0  0
    0.5205   -1.5374    6.5177 Si  0  0  0  0  0  4  0  0  0  0  0  0
    1.1561   -1.5392    4.4133 Si  0  0  0  0  0  4  0  0  0  0  0  0
    1.7170   -2.8911    4.1145 H   0  0  0  0  0  0  0  0  0  0  0  0
    2.3011   -0.6080    4.1898 H   0  0  0  0  0  0  0  0  0  0  0  0
    1.7387    2.7461    6.3985 Si  0  0  0  0  0  4  0  0  0  0  0  0
   -1.4741   -0.6900    6.8900 Si  0  0  0  0  0  4  0  0  0  0  0  0
    0.8877    2.5598    8.4082 Si  0  0  0  0  0  4  0  0  0  0  0  0
   -1.9460    1.1063    5.7355 Si  0  0  0  0  0  4  0  0  0  0  0  0
   -0.1912    5.0983    5.8737 H   0  0  0  0  0  0  0  0  0  0  0  0
    2.0361    5.4979    5.1947 H   0  0  0  0  0  0  0  0  0  0  0  0
    3.2249    2.7988    6.5207 H   0  0  0  0  0  0  0  0  0  0  0  0
    1.4544    1.5096    5.6381 H   0  0  0  0  0  0  0  0  0  0  0  0
   -0.8190    1.4543    4.8718 H   0  0  0  0  0  0  0  0  0  0  0  0
   -3.0882    0.8040    4.8246 H   0  0  0  0  0  0  0  0  0  0  0  0
   -1.1666    3.2630    8.6313 Si  0  0  0  0  0  4  0  0  0  0  0  0
   -1.1589    4.7296    8.8971 H   0  0  0  0  0  0  0  0  0  0  0  0
   -1.7461    2.6583    9.8659 H   0  0  0  0  0  0  0  0  0  0  0  0
   -2.4978    2.8538    6.9512 Si  0  0  0  0  0  4  0  0  0  0  0  0
   -3.8827    2.6455    7.4626 H   0  0  0  0  0  0  0  0  0  0  0  0
   -2.5752    4.0389    6.0744 H   0  0  0  0  0  0  0  0  0  0  0  0
    1.7596    3.2909    9.3678 H   0  0  0  0  0  0  0  0  0  0  0  0
    0.9622    1.1338    8.8286 H   0  0  0  0  0  0  0  0  0  0  0  0
   -1.5785   -0.3632    8.3369 H   0  0  0  0  0  0  0  0  0  0  0  0
   -2.4845   -1.7628    6.6644 H   0  0  0  0  0  0  0  0  0  0  0  0
    1.5136   -0.7598    7.3030 H   0  0  0  0  0  0  0  0  0  0  0  0
    0.5488   -2.9066    7.1104 H   0  0  0  0  0  0  0  0  0  0  0  0
    0.9947    4.9403    2.1914 H   0  0  0  0  0  0  0  0  0  0  0  0
   -0.9508    3.7866    3.0306 H   0  0  0  0  0  0  0  0  0  0  0  0
  1  2  1  0
  1  5  1  0
  2  3  1  0
  2  4  1  0
  2 11  1  0
  5  6  1  0
  5  7  1  0
  5  8  1  0
  8  9  1  0
  8 36  1  0
  8 37  1  0
  9 14  1  0
  9 18  1  0
  9 19  1  0
 10 11  1  0
 10 15  1  0
 10 34  1  0
 10 35  1  0
 11 12  1  0
 11 13  1  0
 14 16  1  0
 14 20  1  0
 14 21  1  0
 15 17  1  0
 15 32  1  0
 15 33  1  0
 16 24  1  0
 16 30  1  0
 16 31  1  0
 17 22  1  0
 17 23  1  0
 17 27  1  0
 24 25  1  0
 24 26  1  0
 24 27  1  0
 27 28  1  0
 27 29  1  0
M  CHG  1   1   1
M  RAD  1   1   2
M  END
$$$$

     RDKit          3D

 37 37  0  0  0  0  0  0  0  0999 V2000
    0.0272    0.6695    1.7758 S   0  0  0  0  0  2  0  0  0  0  0  0
   -1.8448    0.9924    2.7076 Si  0  0  0  0  0  4  0  0  0  0  0  0
   -1.9065    2.2805    3.4281 H   0  0  0  0  0  0  0  0  0  0  0  0
   -2.9037    1.0446    1.6788 H   0  0  0  0  0  0  0  0  0  0  0  0
    1.5743    1.9239    2.4956 Si  0  0  0  0  0  4  0  0  0  0  0  0
    2.4130    1.2421    3.5225 H   0  0  0  0  0  0  0  0  0  0  0  0
    2.5076    2.1874    1.3623 H   0  0  0  0  0  0  0  0  0  0  0  0
    0.8425    3.8300    3.3372 Si  0  0  0  0  0  4  0  0  0  0  0  0
    1.7029    4.2642    5.3422 Si  0  0  0  0  0  4  0  0  0  0  0  0
   -0.6612   -2.2682    3.9621 Si  0  0  0  0  0  4  0  0  0  0  0  0
   -2.2891   -0.7149    4.1053 Si  0  0  0  0  0  4  0  0  0  0  0  0
   -2.2224   -0.1755    5.4797 H   0  0  0  0  0  0  0  0  0  0  0  0
   -3.5918   -1.2784    3.8052 H   0  0  0  0  0  0  0  0  0  0  0  0
    0.7656    3.0003    6.9245 Si  0  0  0  0  0  4  0  0  0  0  0  0
   -0.5830   -3.5265    5.7763 Si  0  0  0  0  0  4  0  0  0  0  0  0
    0.8771    0.8564    6.3769 Si  0  0  0  0  0  4  0  0  0  0  0  0
    1.0330   -2.9559    7.1660 Si  0  0  0  0  0  4  0  0  0  0  0  0
    1.3612    5.6775    5.6667 H   0  0  0  0  0  0  0  0  0  0  0  0
    3.1533    4.1597    5.3457 H   0  0  0  0  0  0  0  0  0  0  0  0
   -0.6532    3.3793    7.0065 H   0  0  0  0  0  0  0  0  0  0  0  0
    1.3817    3.3044    8.2030 H   0  0  0  0  0  0  0  0  0  0  0  0
    0.4920   -1.9983    8.1612 H   0  0  0  0  0  0  0  0  0  0  0  0
    1.4769   -4.1350    7.9527 H   0  0  0  0  0  0  0  0  0  0  0  0
    2.9542    0.0488    6.6393 Si  0  0  0  0  0  4  0  0  0  0  0  0
    3.8364    0.7007    5.6738 H   0  0  0  0  0  0  0  0  0  0  0  0
    3.4092    0.1714    8.0118 H   0  0  0  0  0  0  0  0  0  0  0  0
    2.8196   -2.1451    6.1250 Si  0  0  0  0  0  4  0  0  0  0  0  0
    4.0523   -2.8346    6.4889 H   0  0  0  0  0  0  0  0  0  0  0  0
    2.5963   -2.2555    4.6553 H   0  0  0  0  0  0  0  0  0  0  0  0
   -0.0435    0.0593    7.2088 H   0  0  0  0  0  0  0  0  0  0  0  0
    0.5577    0.7226    4.9536 H   0  0  0  0  0  0  0  0  0  0  0  0
   -0.4353   -4.9565    5.4485 H   0  0  0  0  0  0  0  0  0  0  0  0
   -1.8758   -3.4070    6.5018 H   0  0  0  0  0  0  0  0  0  0  0  0
   -1.0460   -3.1446    2.8192 H   0  0  0  0  0  0  0  0  0  0  0  0
    0.6165   -1.6688    3.6170 H   0  0  0  0  0  0  0  0  0  0  0  0
   -0.6159    3.8601    3.4154 H   0  0  0  0  0  0  0  0  0  0  0  0
    1.2533    4.9461    2.4379 H   0  0  0  0  0  0  0  0  0  0  0  0
  1  2  1  0
  1  5  1  0
  2  3  1  0
  2  4  1  0
  2 11  1  0
  5  6  1  0
  5  7  1  0
  5  8  1  0
  8  9  1  0
  8 36  1  0
  8 37  1  0
  9 14  1  0
  9 18  1  0
  9 19  1  0
 10 11  1  0
 10 15  1  0
 10 34  1  0
 10 35  1  0
 11 12  1  0
 11 13  1  0
 14 16  1  0
 14 20  1  0
 14 21  1  0
 15 17  1  0
 15 32  1  0
 15 33  1  0
 16 24  1  0
 16 30  1  0
 16 31  1  0
 17 22  1  0
 17 23  1  0
 17 27  1  0
 24 25  1  0
 24 26  1  0
 24 27  1  0
 27 28  1  0
 27 29  1  0
M  CHG  1   1   1
M  RAD  1   1   2
M  END
$$$$
