
     RDKit          3D

 37 37  0  0  0  0  0  0  0  0999 V2000
   -0.9804    0.0610    3.4957 S   0  0  0  0  0  2  0  0  0  0  0  0
   -1.7427    1.7637    4.5204 Si  0  0  0  0  0  4  0  0  0  0  0  0
   -2.3792    1.3240    5.7673 H   0  0  0  0  0  0  0  0  0  0  0  0
   -2.7765    2.4753    3.7424 H   0  0  0  0  0  0  0  0  0  0  0  0
   -2.2516   -1.6402    3.6777 Si  0  0  0  0  0  4  0  0  0  0  0  0
   -1.4148   -2.8590    3.5672 H   0  0  0  0  0  0  0  0  0  0  0  0
   -3.2340   -1.6933    2.5708 H   0  0  0  0  0  0  0  0  0  0  0  0
   -3.2619   -1.7204    5.6643 Si  0  0  0  0  0  4  0  0  0  0  0  0
   -2.1906   -3.1571    7.0196 Si  0  0  0  0  0  4  0  0  0  0  0  0
   -0.5571    4.1915    6.9129 Si  0  0  0  0  0  4  0  0  0  0  0  0
   -0.0335    3.1358    4.9893 Si  0  0  0  0  0  4  0  0  0  0  0  0
    0.2331    4.0722    3.9205 H   0  0  0  0  0  0  0  0  0  0  0  0
    1.1263    2.2710    5.3063 H   0  0  0  0  0  0  0  0  0  0  0  0
   -1.1328   -2.0531    8.6346 Si  0  0  0  0  0  4  0  0  0  0  0  0
   -0.9234    2.5885    8.4183 Si  0  0  0  0  0  4  0  0  0  0  0  0
   -2.3839   -1.8594   10.4669 Si  0  0  0  0  0  4  0  0  0  0  0  0
   -1.8583    3.3764   10.2645 Si  0  0  0  0  0  4  0  0  0  0  0  0
   -1.1917   -3.9072    6.2215 H   0  0  0  0  0  0  0  0  0  0  0  0
   -3.1299   -4.1569    7.5503 H   0  0  0  0  0  0  0  0  0  0  0  0
   -0.7674   -0.7224    8.0932 H   0  0  0  0  0  0  0  0  0  0  0  0
    0.1413   -2.7361    8.9697 H   0  0  0  0  0  0  0  0  0  0  0  0
   -3.1880    3.9238    9.9003 H   0  0  0  0  0  0  0  0  0  0  0  0
   -1.0706    4.4240   10.8863 H   0  0  0  0  0  0  0  0  0  0  0  0
   -3.3831    0.1201   10.5887 Si  0  0  0  0  0  4  0  0  0  0  0  0
   -3.7123    0.5429    9.2148 H   0  0  0  0  0  0  0  0  0  0  0  0
   -4.6340   -0.0599   11.3703 H   0  0  0  0  0  0  0  0  0  0  0  0
   -2.1469    1.6242   11.6563 Si  0  0  0  0  0  4  0  0  0  0  0  0
   -2.7657    2.1227   12.8686 H   0  0  0  0  0  0  0  0  0  0  0  0
   -0.7847    1.1110   11.9473 H   0  0  0  0  0  0  0  0  0  0  0  0
   -1.6112   -2.1465   11.6876 H   0  0  0  0  0  0  0  0  0  0  0  0
   -3.4524   -2.8913   10.3955 H   0  0  0  0  0  0  0  0  0  0  0  0
   -1.8867    1.6332    7.8018 H   0  0  0  0  0  0  0  0  0  0  0  0
    0.3388    1.9049    8.6737 H   0  0  0  0  0  0  0  0  0  0  0  0
   -1.7435    5.0288    6.7078 H   0  0  0  0  0  0  0  0  0  0  0  0
    0.5999    5.0216    7.2708 H   0  0  0  0  0  0  0  0  0  0  0  0
   -4.6354   -2.2161    5.4361 H   0  0  0  0  0  0  0  0  0  0  0  0
   -3.3035   -0.4129    6.3194 H   0  0  0  0  0  0  0  0  0  0  0  0
  1  2  1  0
  1  5  1  0
  2  3  1  0
  2  4  1  0
  2 11  1  0
  5  6  1  0
  5  7  1  0
  5  8  1  0
  8  9  1  0
  8 36  1  0
  8 37  1  0
  9 14  1  0
  9 18  1  0
  9 19  1  0
 10 11  1  0
 10 15  1  0
 10 34  1  0
 10 35  1  0
 11 12  1  0
 11 13  1  0
 14 16  1  0
 14 20  1  0
 14 21  1  0
 15 17  1  0
 15 32  1  0
 15 33  1  0
 16 24  1  0
 16 30  1  0
 16 31  1  0
 17 22  1  0
 17 23  1  0
 17 27  1  0
 24 25  1  0
 24 26  1  0
 24 27  1  0
 27 28  1  0
 27 29  1  0
M  CHG  1   1   1
M  RAD  1   1   2
M  END
$$$$

     RDKit          3D

 37 37  0  0  0  0  0  0  0  0999 V2000
   -0.9804    0.0610    3.4957 S   0  0  0  0  0  2  0  0  0  0  0  0
   -1.5166   -1.6579    4.6303 Si  0  0  0  0  0  4  0  0  0  0  0  0
   -0.9620   -1.6124    6.0027 H   0  0  0  0  0  0  0  0  0  0  0  0
   -0.8697   -2.8353    3.9844 H   0  0  0  0  0  0  0  0  0  0  0  0
   -1.3453    1.8824    4.5229 Si  0  0  0  0  0  4  0  0  0  0  0  0
   -2.6463    2.4224    4.0356 H   0  0  0  0  0  0  0  0  0  0  0  0
   -0.3419    2.9265    4.1748 H   0  0  0  0  0  0  0  0  0  0  0  0
   -1.4038    1.5257    6.7238 Si  0  0  0  0  0  4  0  0  0  0  0  0
    0.0105    2.8570    7.8082 Si  0  0  0  0  0  4  0  0  0  0  0  0
   -4.5262   -1.7524    6.7469 Si  0  0  0  0  0  4  0  0  0  0  0  0
   -3.7480   -1.9373    4.6935 Si  0  0  0  0  0  4  0  0  0  0  0  0
   -4.3619   -1.0275    3.7402 H   0  0  0  0  0  0  0  0  0  0  0  0
   -4.0403   -3.3187    4.2140 H   0  0  0  0  0  0  0  0  0  0  0  0
   -1.1944    4.4267    8.8736 Si  0  0  0  0  0  4  0  0  0  0  0  0
   -5.6519    0.1290    7.0876 Si  0  0  0  0  0  4  0  0  0  0  0  0
   -2.7306    5.1638    7.4544 Si  0  0  0  0  0  4  0  0  0  0  0  0
   -5.7938    1.3938    5.2972 Si  0  0  0  0  0  4  0  0  0  0  0  0
    0.9720    3.4510    6.8902 H   0  0  0  0  0  0  0  0  0  0  0  0
    0.7320    2.1031    8.8667 H   0  0  0  0  0  0  0  0  0  0  0  0
   -0.3209    5.4986    9.3580 H   0  0  0  0  0  0  0  0  0  0  0  0
   -1.8933    3.7750   10.0042 H   0  0  0  0  0  0  0  0  0  0  0  0
   -4.8362    0.8824    4.2778 H   0  0  0  0  0  0  0  0  0  0  0  0
   -7.1378    1.2103    4.6946 H   0  0  0  0  0  0  0  0  0  0  0  0
   -4.6495    3.9982    7.6673 Si  0  0  0  0  0  4  0  0  0  0  0  0
   -4.4511    2.8271    8.5144 H   0  0  0  0  0  0  0  0  0  0  0  0
   -5.5754    4.8986    8.4150 H   0  0  0  0  0  0  0  0  0  0  0  0
   -5.4988    3.5467    5.6900 Si  0  0  0  0  0  4  0  0  0  0  0  0
   -6.7680    4.3048    5.4882 H   0  0  0  0  0  0  0  0  0  0  0  0
   -4.5802    4.0681    4.6362 H   0  0  0  0  0  0  0  0  0  0  0  0
   -2.9475    6.5859    7.6480 H   0  0  0  0  0  0  0  0  0  0  0  0
   -2.2407    4.9802    6.0650 H   0  0  0  0  0  0  0  0  0  0  0  0
   -4.9529    0.8833    8.1519 H   0  0  0  0  0  0  0  0  0  0  0  0
   -7.0118   -0.1501    7.6318 H   0  0  0  0  0  0  0  0  0  0  0  0
   -3.3766   -1.8808    7.6872 H   0  0  0  0  0  0  0  0  0  0  0  0
   -5.4240   -2.8926    7.0853 H   0  0  0  0  0  0  0  0  0  0  0  0
   -2.7741    1.7437    7.1765 H   0  0  0  0  0  0  0  0  0  0  0  0
   -1.0504    0.1337    7.0535 H   0  0  0  0  0  0  0  0  0  0  0  0
  1  2  1  0
  1  5  1  0
  2  3  1  0
  2  4  1  0
  2 11  1  0
  5  6  1  0
  5  7  1  0
  5  8  1  0
  8  9  1  0
  8 36  1  0
  8 37  1  0
  9 14  1  0
  9 18  1  0
  9 19  1  0
 10 11  1  0
 10 15  1  0
 10 34  1  0
 10 35  1  0
 11 12  1  0
 11 13  1  0
 14 16  1  0
 14 20  1  0
 14 21  1  0
 15 17  1  0
 15 32  1  0
 15 33  1  0
 16 24  1  0
 16 30  1  0
 16 31  1  0
 17 22  1  0
 17 23  1  0
 17 27  1  0
 24 25  1  0
 24 26  1  0
 24 27  1  0
 27 28  1  0
 27 29  1  0
M  CHG  1   1   1
M  RAD  1   1   2
M  END
$$$$

     RDKit          3D

 37 37  0  0  0  0  0  0  0  0999 V2000
   -0.9804    0.0610    3.4957 S   0  0  0  0  0  2  0  0  0  0  0  0
   -1.8429   -1.8668    3.9827 Si  0  0  0  0  0  4  0  0  0  0  0  0
   -0.7513   -2.8022    4.3554 H   0  0  0  0  0  0  0  0  0  0  0  0
   -2.5838   -2.4139    2.8516 H   0  0  0  0  0  0  0  0  0  0  0  0
   -0.8190    1.1538    5.3420 Si  0  0  0  0  0  4  0  0  0  0  0  0
    0.4200    1.9724    5.3218 H   0  0  0  0  0  0  0  0  0  0  0  0
   -0.6367    0.1775    6.4371 H   0  0  0  0  0  0  0  0  0  0  0  0
   -2.5800    2.4422    5.7000 Si  0  0  0  0  0  4  0  0  0  0  0  0
   -3.8756    2.6399    3.9093 Si  0  0  0  0  0  4  0  0  0  0  0  0
   -5.1121   -2.7216    5.4621 Si  0  0  0  0  0  4  0  0  0  0  0  0
   -3.1580   -1.6503    5.7651 Si  0  0  0  0  0  4  0  0  0  0  0  0
   -3.4367   -0.2424    5.9700 H   0  0  0  0  0  0  0  0  0  0  0  0
   -2.4866   -2.1456    6.9973 H   0  0  0  0  0  0  0  0  0  0  0  0
   -5.7485    3.7011    4.4348 Si  0  0  0  0  0  4  0  0  0  0  0  0
   -6.1661   -2.7856    7.4039 Si  0  0  0  0  0  4  0  0  0  0  0  0
   -6.4576    3.1091    6.4811 Si  0  0  0  0  0  4  0  0  0  0  0  0
   -8.2885   -2.1407    7.2449 Si  0  0  0  0  0  4  0  0  0  0  0  0
   -3.1528    3.4727    2.9131 H   0  0  0  0  0  0  0  0  0  0  0  0
   -4.1215    1.3330    3.3020 H   0  0  0  0  0  0  0  0  0  0  0  0
   -5.5409    5.1688    4.3711 H   0  0  0  0  0  0  0  0  0  0  0  0
   -6.8029    3.2859    3.4889 H   0  0  0  0  0  0  0  0  0  0  0  0
   -8.9263   -2.3984    8.5589 H   0  0  0  0  0  0  0  0  0  0  0  0
   -9.0301   -2.9373    6.2607 H   0  0  0  0  0  0  0  0  0  0  0  0
   -6.4539    0.9095    6.6483 Si  0  0  0  0  0  4  0  0  0  0  0  0
   -5.8025    0.3055    5.4523 H   0  0  0  0  0  0  0  0  0  0  0  0
   -5.6333    0.5017    7.8059 H   0  0  0  0  0  0  0  0  0  0  0  0
   -8.4695    0.0380    6.8386 Si  0  0  0  0  0  4  0  0  0  0  0  0
   -9.2638    0.7357    7.8473 H   0  0  0  0  0  0  0  0  0  0  0  0
   -9.1689    0.1943    5.5412 H   0  0  0  0  0  0  0  0  0  0  0  0
   -7.7536    3.7079    6.7473 H   0  0  0  0  0  0  0  0  0  0  0  0
   -5.4835    3.6936    7.4404 H   0  0  0  0  0  0  0  0  0  0  0  0
   -6.1634   -4.1769    7.9102 H   0  0  0  0  0  0  0  0  0  0  0  0
   -5.5076   -1.9388    8.4106 H   0  0  0  0  0  0  0  0  0  0  0  0
   -5.8585   -2.0366    4.4196 H   0  0  0  0  0  0  0  0  0  0  0  0
   -4.7759   -4.0888    4.9834 H   0  0  0  0  0  0  0  0  0  0  0  0
   -2.1119    3.8074    6.0721 H   0  0  0  0  0  0  0  0  0  0  0  0
   -3.3838    1.9831    6.8666 H   0  0  0  0  0  0  0  0  0  0  0  0
  1  2  1  0
  1  5  1  0
  2  3  1  0
  2  4  1  0
  2 11  1  0
  5  6  1  0
  5  7  1  0
  5  8  1  0
  8  9  1  0
  8 36  1  0
  8 37  1  0
  9 14  1  0
  9 18  1  0
  9 19  1  0
 10 11  1  0
 10 15  1  0
 10 34  1  0
 10 35  1  0
 11 12  1  0
 11 13  1  0
 14 16  1  0
 14 20  1  0
 14 21  1  0
 15 17  1  0
 15 32  1  0
 15 33  1  0
 16 24  1  0
 16 30  1  0
 16 31  1  0
 17 22  1  0
 17 23  1  0
 17 27  1  0
 24 25  1  0
 24 26  1  0
 24 27  1  0
 27 28  1  0
 27 29  1  0
M  CHG  1   1   1
M  RAD  1   1   2
M  END
$$$$

     RDKit          3D

 37 37  0  0  0  0  0  0  0  0999 V2000
   -0.9804    0.0610    3.4957 S   0  0  0  0  0  2  0  0  0  0  0  0
   -1.8510    1.7291    4.4905 Si  0  0  0  0  0  4  0  0  0  0  0  0
   -2.4692    1.2697    5.7394 H   0  0  0  0  0  0  0  0  0  0  0  0
   -2.9198    2.3664    3.6954 H   0  0  0  0  0  0  0  0  0  0  0  0
   -2.1487   -1.7107    3.6940 Si  0  0  0  0  0  4  0  0  0  0  0  0
   -1.2395   -2.8785    3.6069 H   0  0  0  0  0  0  0  0  0  0  0  0
   -3.1179   -1.8383    2.5816 H   0  0  0  0  0  0  0  0  0  0  0  0
   -3.1672   -1.8233    5.6749 Si  0  0  0  0  0  4  0  0  0  0  0  0
   -2.0217   -3.1738    7.0580 Si  0  0  0  0  0  4  0  0  0  0  0  0
   -0.8309    4.2574    6.8551 Si  0  0  0  0  0  4  0  0  0  0  0  0
   -0.2306    3.2079    4.9505 Si  0  0  0  0  0  4  0  0  0  0  0  0
   -0.0127    4.1434    3.8701 H   0  0  0  0  0  0  0  0  0  0  0  0
    0.9765    2.4189    5.2878 H   0  0  0  0  0  0  0  0  0  0  0  0
   -1.0441   -1.9856    8.6638 Si  0  0  0  0  0  4  0  0  0  0  0  0
   -1.1116    2.6567    8.3813 Si  0  0  0  0  0  4  0  0  0  0  0  0
   -2.3181   -1.8415   10.4847 Si  0  0  0  0  0  4  0  0  0  0  0  0
   -2.1058    3.4130   10.2096 Si  0  0  0  0  0  4  0  0  0  0  0  0
   -0.9738   -3.8738    6.2776 H   0  0  0  0  0  0  0  0  0  0  0  0
   -2.9034   -4.2206    7.5971 H   0  0  0  0  0  0  0  0  0  0  0  0
   -0.7551   -0.6431    8.1054 H   0  0  0  0  0  0  0  0  0  0  0  0
    0.2661   -2.5861    9.0171 H   0  0  0  0  0  0  0  0  0  0  0  0
   -3.4632    3.8745    9.8288 H   0  0  0  0  0  0  0  0  0  0  0  0
   -1.3870    4.5147   10.8212 H   0  0  0  0  0  0  0  0  0  0  0  0
   -3.4351    0.0760   10.5712 Si  0  0  0  0  0  4  0  0  0  0  0  0
   -3.7787    0.4588    9.1890 H   0  0  0  0  0  0  0  0  0  0  0  0
   -4.6787   -0.1677   11.3470 H   0  0  0  0  0  0  0  0  0  0  0  0
   -2.2993    1.6665   11.6248 Si  0  0  0  0  0  4  0  0  0  0  0  0
   -2.9558    2.1441   12.8256 H   0  0  0  0  0  0  0  0  0  0  0  0
   -0.9109    1.2402   11.9323 H   0  0  0  0  0  0  0  0  0  0  0  0
   -1.5387   -2.0644   11.7145 H   0  0  0  0  0  0  0  0  0  0  0  0
   -3.3223   -2.9365   10.4213 H   0  0  0  0  0  0  0  0  0  0  0  0
   -2.0114    1.6367    7.7724 H   0  0  0  0  0  0  0  0  0  0  0  0
    0.1873    2.0537    8.6549 H   0  0  0  0  0  0  0  0  0  0  0  0
   -2.0638    5.0190    6.6300 H   0  0  0  0  0  0  0  0  0  0  0  0
    0.2717    5.1604    7.2086 H   0  0  0  0  0  0  0  0  0  0  0  0
   -4.5067   -2.4037    5.4450 H   0  0  0  0  0  0  0  0  0  0  0  0
   -3.2918   -0.5116    6.3106 H   0  0  0  0  0  0  0  0  0  0  0  0
  1  2  1  0
  1  5  1  0
  2  3  1  0
  2  4  1  0
  2 11  1  0
  5  6  1  0
  5  7  1  0
  5  8  1  0
  8  9  1  0
  8 36  1  0
  8 37  1  0
  9 14  1  0
  9 18  1  0
  9 19  1  0
 10 11  1  0
 10 15  1  0
 10 34  1  0
 10 35  1  0
 11 12  1  0
 11 13  1  0
 14 16  1  0
 14 20  1  0
 14 21  1  0
 15 17  1  0
 15 32  1  0
 15 33  1  0
 16 24  1  0
 16 30  1  0
 16 31  1  0
 17 22  1  0
 17 23  1  0
 17 27  1  0
 24 25  1  0
 24 26  1  0
 24 27  1  0
 27 28  1  0
 27 29  1  0
M  CHG  1   1   1
M  RAD  1   1   2
M  END
$$$$

     RDKit          3D

 37 37  0  0  0  0  0  0  0  0999 V2000
   -0.9804    0.0610    3.4957 S   0  0  0  0  0  2  0  0  0  0  0  0
   -1.2432   -1.6786    4.6933 Si  0  0  0  0  0  4  0  0  0  0  0  0
   -0.7366   -1.4856    6.0714 H   0  0  0  0  0  0  0  0  0  0  0  0
   -0.3907   -2.7525    4.1086 H   0  0  0  0  0  0  0  0  0  0  0  0
   -1.6733    1.8321    4.4386 Si  0  0  0  0  0  4  0  0  0  0  0  0
   -3.0355    2.1226    3.9075 H   0  0  0  0  0  0  0  0  0  0  0  0
   -0.8541    3.0177    4.0630 H   0  0  0  0  0  0  0  0  0  0  0  0
   -1.7219    1.5567    6.6514 Si  0  0  0  0  0  4  0  0  0  0  0  0
   -0.5801    3.1512    7.7014 Si  0  0  0  0  0  4  0  0  0  0  0  0
   -4.2417   -2.2029    6.7623 Si  0  0  0  0  0  4  0  0  0  0  0  0
   -3.3955   -2.3321    4.7316 Si  0  0  0  0  0  4  0  0  0  0  0  0
   -4.1326   -1.5783    3.7306 H   0  0  0  0  0  0  0  0  0  0  0  0
   -3.4377   -3.7608    4.3064 H   0  0  0  0  0  0  0  0  0  0  0  0
   -2.0588    4.5325    8.6793 Si  0  0  0  0  0  4  0  0  0  0  0  0
   -5.6783   -0.5294    7.0042 Si  0  0  0  0  0  4  0  0  0  0  0  0
   -3.6643    4.9406    7.2050 Si  0  0  0  0  0  4  0  0  0  0  0  0
   -5.9911    0.6218    5.1597 Si  0  0  0  0  0  4  0  0  0  0  0  0
    0.2877    3.8643    6.7749 H   0  0  0  0  0  0  0  0  0  0  0  0
    0.2339    2.5734    8.8026 H   0  0  0  0  0  0  0  0  0  0  0  0
   -1.3917    5.7559    9.1320 H   0  0  0  0  0  0  0  0  0  0  0  0
   -2.6631    3.8157    9.8248 H   0  0  0  0  0  0  0  0  0  0  0  0
   -4.9369    0.2420    4.1788 H   0  0  0  0  0  0  0  0  0  0  0  0
   -7.2699    0.1883    4.5435 H   0  0  0  0  0  0  0  0  0  0  0  0
   -5.3617    3.4738    7.4357 Si  0  0  0  0  0  4  0  0  0  0  0  0
   -4.9871    2.3877    8.3348 H   0  0  0  0  0  0  0  0  0  0  0  0
   -6.4443    4.2314    8.1292 H   0  0  0  0  0  0  0  0  0  0  0  0
   -6.0754    2.8072    5.4656 Si  0  0  0  0  0  4  0  0  0  0  0  0
   -7.4499    3.3290    5.2110 H   0  0  0  0  0  0  0  0  0  0  0  0
   -5.2343    3.4362    4.4059 H   0  0  0  0  0  0  0  0  0  0  0  0
   -4.1240    6.3113    7.3345 H   0  0  0  0  0  0  0  0  0  0  0  0
   -3.1178    4.7894    5.8329 H   0  0  0  0  0  0  0  0  0  0  0  0
   -5.1428    0.3742    8.0469 H   0  0  0  0  0  0  0  0  0  0  0  0
   -6.9834   -1.0151    7.5374 H   0  0  0  0  0  0  0  0  0  0  0  0
   -3.1093   -2.0963    7.7259 H   0  0  0  0  0  0  0  0  0  0  0  0
   -4.9405   -3.4655    7.1339 H   0  0  0  0  0  0  0  0  0  0  0  0
   -3.1195    1.5551    7.0718 H   0  0  0  0  0  0  0  0  0  0  0  0
   -1.1450    0.2594    7.0456 H   0  0  0  0  0  0  0  0  0  0  0  0
  1  2  1  0
  1  5  1  0
  2  3  1  0
  2  4  1  0
  2 11  1  0
  5  6  1  0
  5  7  1  0
  5  8  1  0
  8  9  1  0
  8 36  1  0
  8 37  1  0
  9 14  1  0
  9 18  1  0
  9 19  1  0
 10 11  1  0
 10 15  1  0
 10 34  1  0
 10 35  1  0
 11 12  1  0
 11 13  1  0
 14 16  1  0
 14 20  1  0
 14 21  1  0
 15 17  1  0
 15 32  1  0
 15 33  1  0
 16 24  1  0
 16 30  1  0
 16 31  1  0
 17 22  1  0
 17 23  1  0
 17 27  1  0
 24 25  1  0
 24 26  1  0
 24 27  1  0
 27 28  1  0
 27 29  1  0
M  CHG  1   1   1
M  RAD  1   1   2
M  END
$$$$
