
     RDKit          3D

 37 37  0  0  0  0  0  0  0  0999 V2000
    0.0009    0.0018    5.1218 S   0  0  0  0  0  2  0  0  0  0  0  0
    0.0997   -1.6443    6.5169 Si  0  0  0  0  0  4  0  0  0  0  0  0
   -1.1066   -1.6394    7.3549 H   0  0  0  0  0  0  0  0  0  0  0  0
    0.1693   -2.8769    5.6953 H   0  0  0  0  0  0  0  0  0  0  0  0
   -0.9536    1.6951    6.0323 Si  0  0  0  0  0  4  0  0  0  0  0  0
   -0.3912    2.9237    5.4034 H   0  0  0  0  0  0  0  0  0  0  0  0
   -2.3885    1.7231    5.7889 H   0  0  0  0  0  0  0  0  0  0  0  0
   -0.4769    1.6536    8.2138 Si  0  0  0  0  0  4  0  0  0  0  0  0
    1.0521    3.2272    8.6345 Si  0  0  0  0  0  4  0  0  0  0  0  0
    1.9058   -2.6794    9.5424 Si  0  0  0  0  0  4  0  0  0  0  0  0
    1.9601   -1.4106    7.7112 Si  0  0  0  0  0  4  0  0  0  0  0  0
    3.0921   -1.9001    6.8786 H   0  0  0  0  0  0  0  0  0  0  0  0
    2.2553   -0.0101    8.0218 H   0  0  0  0  0  0  0  0  0  0  0  0
    0.2217    4.6256   10.1389 Si  0  0  0  0  0  4  0  0  0  0  0  0
    0.1275   -2.2287   10.7942 Si  0  0  0  0  0  4  0  0  0  0  0  0
   -1.5859    3.8246   11.1371 Si  0  0  0  0  0  4  0  0  0  0  0  0
    0.6941   -1.0755   12.6297 Si  0  0  0  0  0  4  0  0  0  0  0  0
    1.4177    3.9553    7.3851 H   0  0  0  0  0  0  0  0  0  0  0  0
    2.3290    2.6153    9.0997 H   0  0  0  0  0  0  0  0  0  0  0  0
   -0.1897    5.8630    9.4140 H   0  0  0  0  0  0  0  0  0  0  0  0
    1.2468    5.0729   11.1139 H   0  0  0  0  0  0  0  0  0  0  0  0
    2.0037   -1.5122   13.1327 H   0  0  0  0  0  0  0  0  0  0  0  0
   -0.2820   -1.3390   13.7062 H   0  0  0  0  0  0  0  0  0  0  0  0
   -1.3610    1.7888   11.9020 Si  0  0  0  0  0  4  0  0  0  0  0  0
   -2.0812    0.7801   11.0734 H   0  0  0  0  0  0  0  0  0  0  0  0
   -2.0051    1.7067   13.2443 H   0  0  0  0  0  0  0  0  0  0  0  0
    0.7304    1.1196   12.1180 Si  0  0  0  0  0  4  0  0  0  0  0  0
    1.4127    1.7846   13.2649 H   0  0  0  0  0  0  0  0  0  0  0  0
    1.5101    1.2607   10.9032 H   0  0  0  0  0  0  0  0  0  0  0  0
   -1.9806    4.7754   12.1922 H   0  0  0  0  0  0  0  0  0  0  0  0
   -2.6938    3.8433   10.1398 H   0  0  0  0  0  0  0  0  0  0  0  0
   -0.4338   -3.5231   11.2556 H   0  0  0  0  0  0  0  0  0  0  0  0
   -0.9240   -1.5366   10.0596 H   0  0  0  0  0  0  0  0  0  0  0  0
    3.1330   -2.4012   10.3113 H   0  0  0  0  0  0  0  0  0  0  0  0
    1.9330   -4.0872    9.1172 H   0  0  0  0  0  0  0  0  0  0  0  0
   -1.7477    1.9368    8.9330 H   0  0  0  0  0  0  0  0  0  0  0  0
   -0.0330    0.3361    8.6575 H   0  0  0  0  0  0  0  0  0  0  0  0
  1  2  1  0
  1  5  1  0
  2  3  1  0
  2  4  1  0
  2 11  1  0
  5  6  1  0
  5  7  1  0
  5  8  1  0
  8  9  1  0
  8 36  1  0
  8 37  1  0
  9 14  1  0
  9 18  1  0
  9 19  1  0
 10 11  1  0
 10 15  1  0
 10 34  1  0
 10 35  1  0
 11 12  1  0
 11 13  1  0
 14 16  1  0
 14 20  1  0
 14 21  1  0
 15 17  1  0
 15 32  1  0
 15 33  1  0
 16 24  1  0
 16 30  1  0
 16 31  1  0
 17 22  1  0
 17 23  1  0
 17 27  1  0
 24 25  1  0
 24 26  1  0
 24 27  1  0
 27 28  1  0
 27 29  1  0
M  CHG  1   1   1
M  RAD  1   1   2
M  END
$$$$

     RDKit          3D

 37 37  0  0  0  0  0  0  0  0999 V2000
    0.0009    0.0018    5.1218 S   0  0  0  0  0  2  0  0  0  0  0  0
   -1.6459   -0.0888    6.5167 Si  0  0  0  0  0  4  0  0  0  0  0  0
   -1.6359    1.1180    7.3539 H   0  0  0  0  0  0  0  0  0  0  0  0
   -2.8786   -0.1535    5.6948 H   0  0  0  0  0  0  0  0  0  0  0  0
    1.6981    0.9494    6.0320 Si  0  0  0  0  0  4  0  0  0  0  0  0
    2.9244    0.3813    5.4038 H   0  0  0  0  0  0  0  0  0  0  0  0
    1.7325    2.3841    5.7878 H   0  0  0  0  0  0  0  0  0  0  0  0
    1.6541    0.4743    8.2139 Si  0  0  0  0  0  4  0  0  0  0  0  0
    3.2209   -1.0613    8.6359 Si  0  0  0  0  0  4  0  0  0  0  0  0
   -2.6896   -1.8884    9.5430 Si  0  0  0  0  0  4  0  0  0  0  0  0
   -1.4207   -1.9494    7.7121 Si  0  0  0  0  0  4  0  0  0  0  0  0
   -1.9149   -3.0799    6.8801 H   0  0  0  0  0  0  0  0  0  0  0  0
   -0.0215   -2.2507    8.0233 H   0  0  0  0  0  0  0  0  0  0  0  0
    4.6226   -0.2362   10.1400 Si  0  0  0  0  0  4  0  0  0  0  0  0
   -2.2313   -0.1114   10.7938 Si  0  0  0  0  0  4  0  0  0  0  0  0
    3.8293    1.5756   11.1369 Si  0  0  0  0  0  4  0  0  0  0  0  0
   -1.0810   -0.6819   12.6299 Si  0  0  0  0  0  4  0  0  0  0  0  0
    3.9477   -1.4309    7.3868 H   0  0  0  0  0  0  0  0  0  0  0  0
    2.6033   -2.3352    9.1017 H   0  0  0  0  0  0  0  0  0  0  0  0
    5.8620    0.1694    9.4151 H   0  0  0  0  0  0  0  0  0  0  0  0
    5.0652   -1.2625   11.1158 H   0  0  0  0  0  0  0  0  0  0  0  0
   -1.5236   -1.9892   13.1337 H   0  0  0  0  0  0  0  0  0  0  0  0
   -1.3405    0.2960   13.7057 H   0  0  0  0  0  0  0  0  0  0  0  0
    1.7924    1.3601   11.9015 Si  0  0  0  0  0  4  0  0  0  0  0  0
    0.7871    2.0842   11.0723 H   0  0  0  0  0  0  0  0  0  0  0  0
    1.7129    2.0055   13.2433 H   0  0  0  0  0  0  0  0  0  0  0  0
    1.1140   -0.7281   12.1187 Si  0  0  0  0  0  4  0  0  0  0  0  0
    1.7757   -1.4127   13.2661 H   0  0  0  0  0  0  0  0  0  0  0  0
    1.2519   -1.5092   10.9045 H   0  0  0  0  0  0  0  0  0  0  0  0
    4.7816    1.9668   12.1920 H   0  0  0  0  0  0  0  0  0  0  0  0
    3.8531    2.6828   10.1389 H   0  0  0  0  0  0  0  0  0  0  0  0
   -3.5234    0.4559   11.2546 H   0  0  0  0  0  0  0  0  0  0  0  0
   -1.5345    0.9366   10.0587 H   0  0  0  0  0  0  0  0  0  0  0  0
   -2.4170   -3.1164   10.3127 H   0  0  0  0  0  0  0  0  0  0  0  0
   -4.0974   -1.9097    9.1175 H   0  0  0  0  0  0  0  0  0  0  0  0
    1.9427    1.7443    8.9324 H   0  0  0  0  0  0  0  0  0  0  0  0
    0.3346    0.0365    8.6576 H   0  0  0  0  0  0  0  0  0  0  0  0
  1  2  1  0
  1  5  1  0
  2  3  1  0
  2  4  1  0
  2 11  1  0
  5  6  1  0
  5  7  1  0
  5  8  1  0
  8  9  1  0
  8 36  1  0
  8 37  1  0
  9 14  1  0
  9 18  1  0
  9 19  1  0
 10 11  1  0
 10 15  1  0
 10 34  1  0
 10 35  1  0
 11 12  1  0
 11 13  1  0
 14 16  1  0
 14 20  1  0
 14 21  1  0
 15 17  1  0
 15 32  1  0
 15 33  1  0
 16 24  1  0
 16 30  1  0
 16 31  1  0
 17 22  1  0
 17 23  1  0
 17 27  1  0
 24 25  1  0
 24 26  1  0
 24 27  1  0
 27 28  1  0
 27 29  1  0
M  CHG  1   1   1
M  RAD  1   1   2
M  END
$$$$

     RDKit          3D

 37 37  0  0  0  0  0  0  0  0999 V2000
    0.0009    0.0018    5.1218 S   0  0  0  0  0  2  0  0  0  0  0  0
    1.2173   -1.7281    5.3119 Si  0  0  0  0  0  4  0  0  0  0  0  0
    0.9549   -2.6440    4.1883 H   0  0  0  0  0  0  0  0  0  0  0  0
    2.6339   -1.3016    5.2195 H   0  0  0  0  0  0  0  0  0  0  0  0
   -1.7258   -0.0778    6.4018 Si  0  0  0  0  0  4  0  0  0  0  0  0
   -2.7344    0.8917    5.9060 H   0  0  0  0  0  0  0  0  0  0  0  0
   -2.3058   -1.3973    6.3003 H   0  0  0  0  0  0  0  0  0  0  0  0
   -1.0843    0.4577    8.4587 Si  0  0  0  0  0  4  0  0  0  0  0  0
   -2.5572   -0.1488    9.9946 Si  0  0  0  0  0  4  0  0  0  0  0  0
    2.6738   -2.6338    8.5755 Si  0  0  0  0  0  4  0  0  0  0  0  0
    0.8956   -2.8044    7.2223 Si  0  0  0  0  0  4  0  0  0  0  0  0
    0.6189   -4.2440    7.0163 H   0  0  0  0  0  0  0  0  0  0  0  0
   -0.2587   -2.2473    7.9294 H   0  0  0  0  0  0  0  0  0  0  0  0
   -2.2682   -2.2523   10.6631 Si  0  0  0  0  0  4  0  0  0  0  0  0
    3.5519   -4.6609    8.9838 Si  0  0  0  0  0  4  0  0  0  0  0  0
   -2.9496   -3.7171    9.1497 Si  0  0  0  0  0  4  0  0  0  0  0  0
    1.8626   -6.1235    9.0082 Si  0  0  0  0  0  4  0  0  0  0  0  0
   -3.9088    0.1031    9.5010 H   0  0  0  0  0  0  0  0  0  0  0  0
   -2.3457    0.7182   11.1871 H   0  0  0  0  0  0  0  0  0  0  0  0
   -0.8777   -2.4213   11.0523 H   0  0  0  0  0  0  0  0  0  0  0  0
   -3.0918   -2.4467   11.8829 H   0  0  0  0  0  0  0  0  0  0  0  0
    2.3254   -7.3987    9.5678 H   0  0  0  0  0  0  0  0  0  0  0  0
    1.4485   -6.3350    7.6019 H   0  0  0  0  0  0  0  0  0  0  0  0
   -1.7466   -5.5966    9.1978 Si  0  0  0  0  0  4  0  0  0  0  0  0
   -1.4761   -6.0838    7.8188 H   0  0  0  0  0  0  0  0  0  0  0  0
   -2.5086   -6.6768    9.8585 H   0  0  0  0  0  0  0  0  0  0  0  0
    0.1930   -5.2891   10.2246 Si  0  0  0  0  0  4  0  0  0  0  0  0
    0.1690   -6.0176   11.5130 H   0  0  0  0  0  0  0  0  0  0  0  0
    0.4447   -3.8715   10.4956 H   0  0  0  0  0  0  0  0  0  0  0  0
   -2.8947   -3.1928    7.7806 H   0  0  0  0  0  0  0  0  0  0  0  0
   -4.3650   -4.0845    9.3999 H   0  0  0  0  0  0  0  0  0  0  0  0
    4.4785   -5.0592    7.9220 H   0  0  0  0  0  0  0  0  0  0  0  0
    4.2725   -4.6744   10.2696 H   0  0  0  0  0  0  0  0  0  0  0  0
    3.6534   -1.7353    7.9724 H   0  0  0  0  0  0  0  0  0  0  0  0
    2.2815   -2.0800    9.8945 H   0  0  0  0  0  0  0  0  0  0  0  0
    0.2674   -0.0525    8.7519 H   0  0  0  0  0  0  0  0  0  0  0  0
   -0.9710    1.9439    8.5086 H   0  0  0  0  0  0  0  0  0  0  0  0
  1  2  1  0
  1  5  1  0
  2  3  1  0
  2  4  1  0
  2 11  1  0
  5  6  1  0
  5  7  1  0
  5  8  1  0
  8  9  1  0
  8 36  1  0
  8 37  1  0
  9 14  1  0
  9 18  1  0
  9 19  1  0
 10 11  1  0
 10 15  1  0
 10 34  1  0
 10 35  1  0
 11 12  1  0
 11 13  1  0
 14 16  1  0
 14 20  1  0
 14 21  1  0
 15 17  1  0
 15 32  1  0
 15 33  1  0
 16 24  1  0
 16 30  1  0
 16 31  1  0
 17 22  1  0
 17 23  1  0
 17 27  1  0
 24 25  1  0
 24 26  1  0
 24 27  1  0
 27 28  1  0
 27 29  1  0
M  CHG  1   1   1
M  RAD  1   1   2
M  END
$$$$

     RDKit          3D

 37 37  0  0  0  0  0  0  0  0999 V2000
    0.0009    0.0018    5.1218 S   0  0  0  0  0  2  0  0  0  0  0  0
   -1.6429   -0.1326    6.5167 Si  0  0  0  0  0  4  0  0  0  0  0  0
   -1.6649    1.0741    7.3539 H   0  0  0  0  0  0  0  0  0  0  0  0
   -2.8735   -0.2300    5.6948 H   0  0  0  0  0  0  0  0  0  0  0  0
    1.6724    0.9942    6.0320 Si  0  0  0  0  0  4  0  0  0  0  0  0
    2.9133    0.4588    5.4037 H   0  0  0  0  0  0  0  0  0  0  0  0
    1.6686    2.4293    5.7878 H   0  0  0  0  0  0  0  0  0  0  0  0
    1.6410    0.5181    8.2138 Si  0  0  0  0  0  4  0  0  0  0  0  0
    3.2481   -0.9754    8.6358 Si  0  0  0  0  0  4  0  0  0  0  0  0
   -2.6383   -1.9593    9.5430 Si  0  0  0  0  0  4  0  0  0  0  0  0
   -1.3683   -1.9866    7.7121 Si  0  0  0  0  0  4  0  0  0  0  0  0
   -1.8323   -3.1297    6.8801 H   0  0  0  0  0  0  0  0  0  0  0  0
    0.0384   -2.2505    8.0232 H   0  0  0  0  0  0  0  0  0  0  0  0
    4.6274   -0.1132   10.1399 Si  0  0  0  0  0  4  0  0  0  0  0  0
   -2.2275   -0.1707   10.7939 Si  0  0  0  0  0  4  0  0  0  0  0  0
    3.7862    1.6768   11.1369 Si  0  0  0  0  0  4  0  0  0  0  0  0
   -1.0624   -0.7104   12.6299 Si  0  0  0  0  0  4  0  0  0  0  0  0
    3.9844   -1.3255    7.3868 H   0  0  0  0  0  0  0  0  0  0  0  0
    2.6646   -2.2652    9.1016 H   0  0  0  0  0  0  0  0  0  0  0  0
    5.8555    0.3251    9.4150 H   0  0  0  0  0  0  0  0  0  0  0  0
    5.0971   -1.1275   11.1157 H   0  0  0  0  0  0  0  0  0  0  0  0
   -1.4701   -2.0291   13.1337 H   0  0  0  0  0  0  0  0  0  0  0  0
   -1.3477    0.2602   13.7057 H   0  0  0  0  0  0  0  0  0  0  0  0
    1.7557    1.4072   11.9015 Si  0  0  0  0  0  4  0  0  0  0  0  0
    0.7315    2.1044   11.0723 H   0  0  0  0  0  0  0  0  0  0  0  0
    1.6591    2.0502   13.2433 H   0  0  0  0  0  0  0  0  0  0  0  0
    1.1331   -0.6983   12.1186 Si  0  0  0  0  0  4  0  0  0  0  0  0
    1.8128   -1.3651   13.2661 H   0  0  0  0  0  0  0  0  0  0  0  0
    1.2917   -1.4755   10.9044 H   0  0  0  0  0  0  0  0  0  0  0  0
    4.7278    2.0931   12.1919 H   0  0  0  0  0  0  0  0  0  0  0  0
    3.7805    2.7843   10.1389 H   0  0  0  0  0  0  0  0  0  0  0  0
   -3.5341    0.3620   11.2546 H   0  0  0  0  0  0  0  0  0  0  0  0
   -1.5587    0.8955   10.0587 H   0  0  0  0  0  0  0  0  0  0  0  0
   -2.3332   -3.1796   10.3128 H   0  0  0  0  0  0  0  0  0  0  0  0
   -4.0451   -2.0180    9.1175 H   0  0  0  0  0  0  0  0  0  0  0  0
    1.8957    1.7953    8.9323 H   0  0  0  0  0  0  0  0  0  0  0  0
    0.3336    0.0454    8.6576 H   0  0  0  0  0  0  0  0  0  0  0  0
  1  2  1  0
  1  5  1  0
  2  3  1  0
  2  4  1  0
  2 11  1  0
  5  6  1  0
  5  7  1  0
  5  8  1  0
  8  9  1  0
  8 36  1  0
  8 37  1  0
  9 14  1  0
  9 18  1  0
  9 19  1  0
 10 11  1  0
 10 15  1  0
 10 34  1  0
 10 35  1  0
 11 12  1  0
 11 13  1  0
 14 16  1  0
 14 20  1  0
 14 21  1  0
 15 17  1  0
 15 32  1  0
 15 33  1  0
 16 24  1  0
 16 30  1  0
 16 31  1  0
 17 22  1  0
 17 23  1  0
 17 27  1  0
 24 25  1  0
 24 26  1  0
 24 27  1  0
 27 28  1  0
 27 29  1  0
M  CHG  1   1   1
M  RAD  1   1   2
M  END
$$$$

     RDKit          3D

 37 37  0  0  0  0  0  0  0  0999 V2000
    0.0009    0.0018    5.1218 S   0  0  0  0  0  2  0  0  0  0  0  0
   -1.7147   -0.2945    6.4019 Si  0  0  0  0  0  4  0  0  0  0  0  0
   -1.3457   -1.3562    7.3611 H   0  0  0  0  0  0  0  0  0  0  0  0
   -2.8519   -0.7447    5.6208 H   0  0  0  0  0  0  0  0  0  0  0  0
    1.4402    1.1355    6.2369 Si  0  0  0  0  0  4  0  0  0  0  0  0
    0.8703    2.4607    6.5690 H   0  0  0  0  0  0  0  0  0  0  0  0
    2.6677    1.3623    5.4640 H   0  0  0  0  0  0  0  0  0  0  0  0
    1.8867    0.0736    8.1653 Si  0  0  0  0  0  4  0  0  0  0  0  0
    1.4070    1.3673    9.8999 Si  0  0  0  0  0  4  0  0  0  0  0  0
   -4.3423    2.0515    7.4954 Si  0  0  0  0  0  4  0  0  0  0  0  0
   -2.1278    1.6396    7.4270 Si  0  0  0  0  0  4  0  0  0  0  0  0
   -1.7198    1.4698    8.8494 H   0  0  0  0  0  0  0  0  0  0  0  0
   -1.3981    2.7536    6.8398 H   0  0  0  0  0  0  0  0  0  0  0  0
    0.7116    0.0967   11.6296 Si  0  0  0  0  0  4  0  0  0  0  0  0
   -4.9160    2.8483    9.5179 Si  0  0  0  0  0  4  0  0  0  0  0  0
   -0.6603   -1.4909   10.9764 Si  0  0  0  0  0  4  0  0  0  0  0  0
   -3.2437    2.7108   10.9537 Si  0  0  0  0  0  4  0  0  0  0  0  0
    0.3917    2.3703    9.5522 H   0  0  0  0  0  0  0  0  0  0  0  0
    2.6264    2.1046   10.2703 H   0  0  0  0  0  0  0  0  0  0  0  0
    0.1859    0.9317   12.7051 H   0  0  0  0  0  0  0  0  0  0  0  0
    1.9443   -0.5505   12.1666 H   0  0  0  0  0  0  0  0  0  0  0  0
   -1.9329    2.8354   10.3501 H   0  0  0  0  0  0  0  0  0  0  0  0
   -3.3692    3.8093   11.9534 H   0  0  0  0  0  0  0  0  0  0  0  0
   -2.7682   -0.9442   10.9167 Si  0  0  0  0  0  4  0  0  0  0  0  0
   -3.5878   -2.1102   11.3556 H   0  0  0  0  0  0  0  0  0  0  0  0
   -3.1953   -0.6864    9.5121 H   0  0  0  0  0  0  0  0  0  0  0  0
   -3.3312    0.7926   12.1387 Si  0  0  0  0  0  4  0  0  0  0  0  0
   -4.7629    0.6423   12.5319 H   0  0  0  0  0  0  0  0  0  0  0  0
   -2.5777    0.9133   13.3863 H   0  0  0  0  0  0  0  0  0  0  0  0
   -0.2325   -1.9503    9.6235 H   0  0  0  0  0  0  0  0  0  0  0  0
   -0.4622   -2.6736   11.8619 H   0  0  0  0  0  0  0  0  0  0  0  0
   -6.0551    2.0640   10.0044 H   0  0  0  0  0  0  0  0  0  0  0  0
   -5.3282    4.2655    9.4116 H   0  0  0  0  0  0  0  0  0  0  0  0
   -4.6213    3.0506    6.4454 H   0  0  0  0  0  0  0  0  0  0  0  0
   -5.1110    0.8578    7.1749 H   0  0  0  0  0  0  0  0  0  0  0  0
    3.3183   -0.3023    8.1735 H   0  0  0  0  0  0  0  0  0  0  0  0
    1.0960   -1.1652    8.2800 H   0  0  0  0  0  0  0  0  0  0  0  0
  1  2  1  0
  1  5  1  0
  2  3  1  0
  2  4  1  0
  2 11  1  0
  5  6  1  0
  5  7  1  0
  5  8  1  0
  8  9  1  0
  8 36  1  0
  8 37  1  0
  9 14  1  0
  9 18  1  0
  9 19  1  0
 10 11  1  0
 10 15  1  0
 10 34  1  0
 10 35  1  0
 11 12  1  0
 11 13  1  0
 14 16  1  0
 14 20  1  0
 14 21  1  0
 15 17  1  0
 15 32  1  0
 15 33  1  0
 16 24  1  0
 16 30  1  0
 16 31  1  0
 17 22  1  0
 17 23  1  0
 17 27  1  0
 24 25  1  0
 24 26  1  0
 24 27  1  0
 27 28  1  0
 27 29  1  0
M  CHG  1   1   1
M  RAD  1   1   2
M  END
$$$$

     RDKit          3D

 37 37  0  0  0  0  0  0  0  0999 V2000
    0.0009    0.0018    5.1218 S   0  0  0  0  0  2  0  0  0  0  0  0
    1.0680   -0.4288    6.8916 Si  0  0  0  0  0  4  0  0  0  0  0  0
    0.7676   -1.7448    7.4624 H   0  0  0  0  0  0  0  0  0  0  0  0
    2.5225   -0.4401    6.5692 H   0  0  0  0  0  0  0  0  0  0  0  0
   -2.0588   -0.4693    5.2125 Si  0  0  0  0  0  4  0  0  0  0  0  0
   -2.5455   -0.6911    3.8198 H   0  0  0  0  0  0  0  0  0  0  0  0
   -2.8717    0.6733    5.7168 H   0  0  0  0  0  0  0  0  0  0  0  0
   -2.4769   -2.3340    6.3432 Si  0  0  0  0  0  4  0  0  0  0  0  0
   -4.6662   -2.4664    6.7285 Si  0  0  0  0  0  4  0  0  0  0  0  0
   -1.3815    1.3965    8.8662 Si  0  0  0  0  0  4  0  0  0  0  0  0
    0.7862    1.1414    8.4642 Si  0  0  0  0  0  4  0  0  0  0  0  0
    1.4892    0.6552    9.6774 H   0  0  0  0  0  0  0  0  0  0  0  0
    1.3940    2.4159    8.0268 H   0  0  0  0  0  0  0  0  0  0  0  0
   -5.2016   -1.6309    8.7283 Si  0  0  0  0  0  4  0  0  0  0  0  0
   -1.8603    0.8043   10.9866 Si  0  0  0  0  0  4  0  0  0  0  0  0
   -6.6109    0.0886    8.5360 Si  0  0  0  0  0  4  0  0  0  0  0  0
   -3.9697    1.4288   11.3808 Si  0  0  0  0  0  4  0  0  0  0  0  0
   -5.0800   -3.8878    6.6864 H   0  0  0  0  0  0  0  0  0  0  0  0
   -5.4516   -1.7428    5.7235 H   0  0  0  0  0  0  0  0  0  0  0  0
   -3.9748   -1.2293    9.4043 H   0  0  0  0  0  0  0  0  0  0  0  0
   -5.8735   -2.6672    9.5557 H   0  0  0  0  0  0  0  0  0  0  0  0
   -3.9832    2.0591   12.7263 H   0  0  0  0  0  0  0  0  0  0  0  0
   -4.8723    0.2701   11.4531 H   0  0  0  0  0  0  0  0  0  0  0  0
   -5.5574    1.9849    8.0980 Si  0  0  0  0  0  4  0  0  0  0  0  0
   -4.5326    1.7442    7.0798 H   0  0  0  0  0  0  0  0  0  0  0  0
   -6.5424    2.9301    7.5234 H   0  0  0  0  0  0  0  0  0  0  0  0
   -4.6760    2.9188    9.8946 Si  0  0  0  0  0  4  0  0  0  0  0  0
   -3.5405    3.7848    9.4974 H   0  0  0  0  0  0  0  0  0  0  0  0
   -5.6561    3.7919   10.5527 H   0  0  0  0  0  0  0  0  0  0  0  0
   -7.4883    0.2136    9.7083 H   0  0  0  0  0  0  0  0  0  0  0  0
   -7.5047   -0.2141    7.3856 H   0  0  0  0  0  0  0  0  0  0  0  0
   -1.8020   -0.6850   11.0095 H   0  0  0  0  0  0  0  0  0  0  0  0
   -0.9193    1.4008   11.9167 H   0  0  0  0  0  0  0  0  0  0  0  0
   -1.8447    2.7657    8.5901 H   0  0  0  0  0  0  0  0  0  0  0  0
   -2.1665    0.5005    8.0044 H   0  0  0  0  0  0  0  0  0  0  0  0
   -2.0945   -3.4761    5.5024 H   0  0  0  0  0  0  0  0  0  0  0  0
   -1.7142   -2.4198    7.5881 H   0  0  0  0  0  0  0  0  0  0  0  0
  1  2  1  0
  1  5  1  0
  2  3  1  0
  2  4  1  0
  2 11  1  0
  5  6  1  0
  5  7  1  0
  5  8  1  0
  8  9  1  0
  8 36  1  0
  8 37  1  0
  9 14  1  0
  9 18  1  0
  9 19  1  0
 10 11  1  0
 10 15  1  0
 10 34  1  0
 10 35  1  0
 11 12  1  0
 11 13  1  0
 14 16  1  0
 14 20  1  0
 14 21  1  0
 15 17  1  0
 15 32  1  0
 15 33  1  0
 16 24  1  0
 16 30  1  0
 16 31  1  0
 17 22  1  0
 17 23  1  0
 17 27  1  0
 24 25  1  0
 24 26  1  0
 24 27  1  0
 27 28  1  0
 27 29  1  0
M  CHG  1   1   1
M  RAD  1   1   2
M  END
$$$$
