
     RDKit          3D

 37 37  0  0  0  0  0  0  0  0999 V2000
    0.0011    0.0008    3.1917 S   0  0  0  0  0  2  0  0  0  0  0  0
   -0.2454   -1.8833    4.1504 Si  0  0  0  0  0  4  0  0  0  0  0  0
   -0.6791   -2.8580    3.1086 H   0  0  0  0  0  0  0  0  0  0  0  0
   -1.3672   -1.8107    5.1106 H   0  0  0  0  0  0  0  0  0  0  0  0
   -1.7498    1.2111    3.5688 Si  0  0  0  0  0  4  0  0  0  0  0  0
   -1.3045    2.5837    3.8196 H   0  0  0  0  0  0  0  0  0  0  0  0
   -2.6543    1.2244    2.4380 H   0  0  0  0  0  0  0  0  0  0  0  0
   -2.7545    0.4105    5.3760 Si  0  0  0  0  0  4  0  0  0  0  0  0
   -4.2838    1.7678    6.1904 Si  0  0  0  0  0  4  0  0  0  0  0  0
    2.9438   -1.0703    5.8246 Si  0  0  0  0  0  4  0  0  0  0  0  0
    1.5993   -2.6421    5.0751 Si  0  0  0  0  0  4  0  0  0  0  0  0
    2.3282   -3.4898    4.1172 H   0  0  0  0  0  0  0  0  0  0  0  0
    1.2308   -3.5239    6.2140 H   0  0  0  0  0  0  0  0  0  0  0  0
   -3.8198    3.9058    5.8815 Si  0  0  0  0  0  4  0  0  0  0  0  0
    1.8609    0.7442    6.5068 Si  0  0  0  0  0  4  0  0  0  0  0  0
   -2.3648    4.6690    7.4176 Si  0  0  0  0  0  4  0  0  0  0  0  0
    0.8429    0.3047    8.4327 Si  0  0  0  0  0  4  0  0  0  0  0  0
   -5.5856    1.4623    5.5667 H   0  0  0  0  0  0  0  0  0  0  0  0
   -4.3885    1.5295    7.6522 H   0  0  0  0  0  0  0  0  0  0  0  0
   -3.3834    4.2206    4.5277 H   0  0  0  0  0  0  0  0  0  0  0  0
   -5.0745    4.6788    6.1113 H   0  0  0  0  0  0  0  0  0  0  0  0
    1.8705    0.0708    9.4481 H   0  0  0  0  0  0  0  0  0  0  0  0
   -0.0307   -0.8818    8.3354 H   0  0  0  0  0  0  0  0  0  0  0  0
   -0.4520    3.5567    7.3448 Si  0  0  0  0  0  4  0  0  0  0  0  0
    0.6539    4.5324    7.4081 H   0  0  0  0  0  0  0  0  0  0  0  0
   -0.3617    2.8619    6.0665 H   0  0  0  0  0  0  0  0  0  0  0  0
   -0.3455    2.1008    9.0451 Si  0  0  0  0  0  4  0  0  0  0  0  0
    0.2686    2.7824   10.1930 H   0  0  0  0  0  0  0  0  0  0  0  0
   -1.7158    1.7165    9.4235 H   0  0  0  0  0  0  0  0  0  0  0  0
   -3.0399    4.5480    8.7252 H   0  0  0  0  0  0  0  0  0  0  0  0
   -2.1807    6.1089    7.1322 H   0  0  0  0  0  0  0  0  0  0  0  0
    2.8604    1.7978    6.7580 H   0  0  0  0  0  0  0  0  0  0  0  0
    0.9434    1.2588    5.4879 H   0  0  0  0  0  0  0  0  0  0  0  0
    3.9659   -0.7245    4.8220 H   0  0  0  0  0  0  0  0  0  0  0  0
    3.6902   -1.6049    6.9963 H   0  0  0  0  0  0  0  0  0  0  0  0
   -3.4163   -0.8765    5.0246 H   0  0  0  0  0  0  0  0  0  0  0  0
   -1.7248    0.0724    6.3724 H   0  0  0  0  0  0  0  0  0  0  0  0
  1  2  1  0
  1  5  1  0
  2  3  1  0
  2  4  1  0
  2 11  1  0
  5  6  1  0
  5  7  1  0
  5  8  1  0
  8  9  1  0
  8 36  1  0
  8 37  1  0
  9 14  1  0
  9 18  1  0
  9 19  1  0
 10 11  1  0
 10 15  1  0
 10 34  1  0
 10 35  1  0
 11 12  1  0
 11 13  1  0
 14 16  1  0
 14 20  1  0
 14 21  1  0
 15 17  1  0
 15 32  1  0
 15 33  1  0
 16 24  1  0
 16 30  1  0
 16 31  1  0
 17 22  1  0
 17 23  1  0
 17 27  1  0
 24 25  1  0
 24 26  1  0
 24 27  1  0
 27 28  1  0
 27 29  1  0
M  CHG  1   1   1
M  RAD  1   1   2
M  END
$$$$

     RDKit          3D

 37 37  0  0  0  0  0  0  0  0999 V2000
    0.0011    0.0008    3.1917 S   0  0  0  0  0  2  0  0  0  0  0  0
    0.0135   -2.0330    3.8495 Si  0  0  0  0  0  4  0  0  0  0  0  0
   -0.7292   -2.2085    5.1111 H   0  0  0  0  0  0  0  0  0  0  0  0
   -0.7150   -2.8268    2.8315 H   0  0  0  0  0  0  0  0  0  0  0  0
   -1.5473    1.1325    4.1381 Si  0  0  0  0  0  4  0  0  0  0  0  0
   -2.5131    0.2090    4.7379 H   0  0  0  0  0  0  0  0  0  0  0  0
   -2.2133    1.9854    3.1127 H   0  0  0  0  0  0  0  0  0  0  0  0
   -0.6865    2.5302    5.6664 Si  0  0  0  0  0  4  0  0  0  0  0  0
    1.5239    2.4793    5.4737 Si  0  0  0  0  0  4  0  0  0  0  0  0
    3.1980   -2.0132    5.7066 Si  0  0  0  0  0  4  0  0  0  0  0  0
    2.0777   -2.8534    3.9729 Si  0  0  0  0  0  4  0  0  0  0  0  0
    2.0414   -4.3016    4.0496 H   0  0  0  0  0  0  0  0  0  0  0  0
    2.7900   -2.4735    2.7511 H   0  0  0  0  0  0  0  0  0  0  0  0
    2.5033    4.2484    6.3663 Si  0  0  0  0  0  4  0  0  0  0  0  0
    2.2781   -2.5282    7.6412 Si  0  0  0  0  0  4  0  0  0  0  0  0
    2.9843    3.7938    8.5217 Si  0  0  0  0  0  4  0  0  0  0  0  0
    1.0851   -0.8802    8.5106 Si  0  0  0  0  0  4  0  0  0  0  0  0
    1.8808    2.2885    4.0532 H   0  0  0  0  0  0  0  0  0  0  0  0
    2.0124    1.2900    6.1966 H   0  0  0  0  0  0  0  0  0  0  0  0
    3.8204    4.4242    5.6899 H   0  0  0  0  0  0  0  0  0  0  0  0
    1.7317    5.4655    6.2402 H   0  0  0  0  0  0  0  0  0  0  0  0
    0.4593   -0.0363    7.4923 H   0  0  0  0  0  0  0  0  0  0  0  0
   -0.0066   -1.4370    9.3465 H   0  0  0  0  0  0  0  0  0  0  0  0
    3.7191    1.6952    8.7006 Si  0  0  0  0  0  4  0  0  0  0  0  0
    4.0246    1.1075    7.3951 H   0  0  0  0  0  0  0  0  0  0  0  0
    5.0031    1.7454    9.4559 H   0  0  0  0  0  0  0  0  0  0  0  0
    2.3222    0.4197    9.8560 Si  0  0  0  0  0  4  0  0  0  0  0  0
    3.0343   -0.4867   10.7893 H   0  0  0  0  0  0  0  0  0  0  0  0
    1.4522    1.2700   10.6557 H   0  0  0  0  0  0  0  0  0  0  0  0
    1.7682    3.9576    9.3123 H   0  0  0  0  0  0  0  0  0  0  0  0
    3.9780    4.7638    9.0323 H   0  0  0  0  0  0  0  0  0  0  0  0
    3.3383   -2.8831    8.6281 H   0  0  0  0  0  0  0  0  0  0  0  0
    1.4348   -3.7310    7.4917 H   0  0  0  0  0  0  0  0  0  0  0  0
    3.3810   -0.5633    5.5192 H   0  0  0  0  0  0  0  0  0  0  0  0
    4.5557   -2.6027    5.6616 H   0  0  0  0  0  0  0  0  0  0  0  0
   -1.2391    3.8684    5.5546 H   0  0  0  0  0  0  0  0  0  0  0  0
   -1.0795    2.0029    6.9998 H   0  0  0  0  0  0  0  0  0  0  0  0
  1  2  1  0
  1  5  1  0
  2  3  1  0
  2  4  1  0
  2 11  1  0
  5  6  1  0
  5  7  1  0
  5  8  1  0
  8  9  1  0
  8 36  1  0
  8 37  1  0
  9 14  1  0
  9 18  1  0
  9 19  1  0
 10 11  1  0
 10 15  1  0
 10 34  1  0
 10 35  1  0
 11 12  1  0
 11 13  1  0
 14 16  1  0
 14 20  1  0
 14 21  1  0
 15 17  1  0
 15 32  1  0
 15 33  1  0
 16 24  1  0
 16 30  1  0
 16 31  1  0
 17 22  1  0
 17 23  1  0
 17 27  1  0
 24 25  1  0
 24 26  1  0
 24 27  1  0
 27 28  1  0
 27 29  1  0
M  CHG  1   1   1
M  RAD  1   1   2
M  END
$$$$

     RDKit          3D

 37 37  0  0  0  0  0  0  0  0999 V2000
    0.0011    0.0008    3.1917 S   0  0  0  0  0  2  0  0  0  0  0  0
   -1.7956    0.7527    4.0248 Si  0  0  0  0  0  4  0  0  0  0  0  0
   -2.8547    0.6874    2.9907 H   0  0  0  0  0  0  0  0  0  0  0  0
   -2.2253   -0.1241    5.1257 H   0  0  0  0  0  0  0  0  0  0  0  0
    1.7350    1.0362    3.8578 Si  0  0  0  0  0  4  0  0  0  0  0  0
    1.6147    2.4867    3.7384 H   0  0  0  0  0  0  0  0  0  0  0  0
    2.8688    0.6184    2.9999 H   0  0  0  0  0  0  0  0  0  0  0  0
    2.2722    0.5329    5.9563 Si  0  0  0  0  0  4  0  0  0  0  0  0
    3.0272    2.3767    6.9873 Si  0  0  0  0  0  4  0  0  0  0  0  0
   -1.9733    2.9629    6.8721 Si  0  0  0  0  0  4  0  0  0  0  0  0
   -1.6247    2.8669    4.6840 Si  0  0  0  0  0  4  0  0  0  0  0  0
   -0.3187    3.4239    4.3198 H   0  0  0  0  0  0  0  0  0  0  0  0
   -2.6604    3.7225    4.0363 H   0  0  0  0  0  0  0  0  0  0  0  0
    2.9034    2.0814    9.2070 Si  0  0  0  0  0  4  0  0  0  0  0  0
   -3.6369    4.3530    7.3945 Si  0  0  0  0  0  4  0  0  0  0  0  0
    0.8053    1.5182    9.7270 Si  0  0  0  0  0  4  0  0  0  0  0  0
   -3.5760    4.6502    9.6277 Si  0  0  0  0  0  4  0  0  0  0  0  0
    4.4521    2.5104    6.6395 H   0  0  0  0  0  0  0  0  0  0  0  0
    2.2772    3.5594    6.5693 H   0  0  0  0  0  0  0  0  0  0  0  0
    3.2771    3.3417    9.8433 H   0  0  0  0  0  0  0  0  0  0  0  0
    3.8195    0.9798    9.5488 H   0  0  0  0  0  0  0  0  0  0  0  0
   -4.9425    4.6139   10.1349 H   0  0  0  0  0  0  0  0  0  0  0  0
   -2.9486    5.9217    9.9703 H   0  0  0  0  0  0  0  0  0  0  0  0
   -0.2736    3.3056   10.5384 Si  0  0  0  0  0  4  0  0  0  0  0  0
    0.1978    3.5166   11.9200 H   0  0  0  0  0  0  0  0  0  0  0  0
    0.0571    4.5144    9.7817 H   0  0  0  0  0  0  0  0  0  0  0  0
   -2.4814    2.9214   10.5629 Si  0  0  0  0  0  4  0  0  0  0  0  0
   -2.9659    2.7868   11.9236 H   0  0  0  0  0  0  0  0  0  0  0  0
   -2.7370    1.7147    9.7490 H   0  0  0  0  0  0  0  0  0  0  0  0
    0.1311    1.0305    8.5251 H   0  0  0  0  0  0  0  0  0  0  0  0
    0.7620    0.4347   10.7217 H   0  0  0  0  0  0  0  0  0  0  0  0
   -4.9431    3.8320    7.0035 H   0  0  0  0  0  0  0  0  0  0  0  0
   -3.4759    5.6692    6.7770 H   0  0  0  0  0  0  0  0  0  0  0  0
   -0.7484    3.4880    7.5061 H   0  0  0  0  0  0  0  0  0  0  0  0
   -2.3228    1.6372    7.4369 H   0  0  0  0  0  0  0  0  0  0  0  0
    1.1219   -0.0443    6.6706 H   0  0  0  0  0  0  0  0  0  0  0  0
    3.3733   -0.4554    6.0059 H   0  0  0  0  0  0  0  0  0  0  0  0
  1  2  1  0
  1  5  1  0
  2  3  1  0
  2  4  1  0
  2 11  1  0
  5  6  1  0
  5  7  1  0
  5  8  1  0
  8  9  1  0
  8 36  1  0
  8 37  1  0
  9 14  1  0
  9 18  1  0
  9 19  1  0
 10 11  1  0
 10 15  1  0
 10 34  1  0
 10 35  1  0
 11 12  1  0
 11 13  1  0
 14 16  1  0
 14 20  1  0
 14 21  1  0
 15 17  1  0
 15 32  1  0
 15 33  1  0
 16 24  1  0
 16 30  1  0
 16 31  1  0
 17 22  1  0
 17 23  1  0
 17 27  1  0
 24 25  1  0
 24 26  1  0
 24 27  1  0
 27 28  1  0
 27 29  1  0
M  CHG  1   1   1
M  RAD  1   1   2
M  END
$$$$

     RDKit          3D

 37 37  0  0  0  0  0  0  0  0999 V2000
    0.0011    0.0008    3.1917 S   0  0  0  0  0  2  0  0  0  0  0  0
    1.1283   -0.3837    5.0022 Si  0  0  0  0  0  4  0  0  0  0  0  0
    0.2017   -0.1977    6.1177 H   0  0  0  0  0  0  0  0  0  0  0  0
    2.2742    0.5436    5.0612 H   0  0  0  0  0  0  0  0  0  0  0  0
   -1.8864    0.8624    3.6262 Si  0  0  0  0  0  4  0  0  0  0  0  0
   -1.9556    2.2997    3.2426 H   0  0  0  0  0  0  0  0  0  0  0  0
   -2.9045    0.1828    2.7780 H   0  0  0  0  0  0  0  0  0  0  0  0
   -2.4493    0.7062    5.7570 Si  0  0  0  0  0  4  0  0  0  0  0  0
   -2.1398    2.6618    6.8354 Si  0  0  0  0  0  4  0  0  0  0  0  0
    3.1229   -3.0327    6.6191 Si  0  0  0  0  0  4  0  0  0  0  0  0
    1.7933   -2.4873    4.9646 Si  0  0  0  0  0  4  0  0  0  0  0  0
    0.6047   -3.3571    4.9089 H   0  0  0  0  0  0  0  0  0  0  0  0
    2.5167   -2.7140    3.6806 H   0  0  0  0  0  0  0  0  0  0  0  0
   -1.7987    2.2872    9.0161 Si  0  0  0  0  0  4  0  0  0  0  0  0
    2.7494   -1.8683    8.4749 Si  0  0  0  0  0  4  0  0  0  0  0  0
    0.3059    1.6446    9.3011 Si  0  0  0  0  0  4  0  0  0  0  0  0
    0.6791   -2.0872    9.2153 Si  0  0  0  0  0  4  0  0  0  0  0  0
   -1.0228    3.4068    6.2669 H   0  0  0  0  0  0  0  0  0  0  0  0
   -3.3672    3.4982    6.7120 H   0  0  0  0  0  0  0  0  0  0  0  0
   -2.6751    1.2011    9.4597 H   0  0  0  0  0  0  0  0  0  0  0  0
   -2.0170    3.5202    9.7727 H   0  0  0  0  0  0  0  0  0  0  0  0
   -0.2931   -1.3455    8.4336 H   0  0  0  0  0  0  0  0  0  0  0  0
    0.3386   -3.5323    9.2102 H   0  0  0  0  0  0  0  0  0  0  0  0
    0.6556    0.8610   11.3693 Si  0  0  0  0  0  4  0  0  0  0  0  0
    2.0184    1.2810   11.7588 H   0  0  0  0  0  0  0  0  0  0  0  0
   -0.3111    1.4284   12.2902 H   0  0  0  0  0  0  0  0  0  0  0  0
    0.6173   -1.3734   11.3533 Si  0  0  0  0  0  4  0  0  0  0  0  0
    1.7217   -1.9408   12.1074 H   0  0  0  0  0  0  0  0  0  0  0  0
   -0.6398   -1.8033   11.9809 H   0  0  0  0  0  0  0  0  0  0  0  0
    0.5799    0.5425    8.3693 H   0  0  0  0  0  0  0  0  0  0  0  0
    1.2583    2.7232    8.9716 H   0  0  0  0  0  0  0  0  0  0  0  0
    3.6637   -2.4094    9.5182 H   0  0  0  0  0  0  0  0  0  0  0  0
    3.1200   -0.4526    8.3124 H   0  0  0  0  0  0  0  0  0  0  0  0
    2.9377   -4.4652    6.9369 H   0  0  0  0  0  0  0  0  0  0  0  0
    4.5261   -2.8584    6.2467 H   0  0  0  0  0  0  0  0  0  0  0  0
   -1.8011   -0.3912    6.4570 H   0  0  0  0  0  0  0  0  0  0  0  0
   -3.9161    0.4446    5.8193 H   0  0  0  0  0  0  0  0  0  0  0  0
  1  2  1  0
  1  5  1  0
  2  3  1  0
  2  4  1  0
  2 11  1  0
  5  6  1  0
  5  7  1  0
  5  8  1  0
  8  9  1  0
  8 36  1  0
  8 37  1  0
  9 14  1  0
  9 18  1  0
  9 19  1  0
 10 11  1  0
 10 15  1  0
 10 34  1  0
 10 35  1  0
 11 12  1  0
 11 13  1  0
 14 16  1  0
 14 20  1  0
 14 21  1  0
 15 17  1  0
 15 32  1  0
 15 33  1  0
 16 24  1  0
 16 30  1  0
 16 31  1  0
 17 22  1  0
 17 23  1  0
 17 27  1  0
 24 25  1  0
 24 26  1  0
 24 27  1  0
 27 28  1  0
 27 29  1  0
M  CHG  1   1   1
M  RAD  1   1   2
M  END
$$$$

     RDKit          3D

 37 37  0  0  0  0  0  0  0  0999 V2000
    0.0011    0.0008    3.1917 S   0  0  0  0  0  2  0  0  0  0  0  0
    1.1767   -0.1897    5.0022 Si  0  0  0  0  0  4  0  0  0  0  0  0
    0.2321   -0.1615    6.1176 H   0  0  0  0  0  0  0  0  0  0  0  0
    2.1513    0.9163    5.0612 H   0  0  0  0  0  0  0  0  0  0  0  0
   -2.0040    0.5344    3.6263 Si  0  0  0  0  0  4  0  0  0  0  0  0
   -2.3128    1.9398    3.2427 H   0  0  0  0  0  0  0  0  0  0  0  0
   -2.8940   -0.3060    2.7780 H   0  0  0  0  0  0  0  0  0  0  0  0
   -2.5328    0.2860    5.7570 Si  0  0  0  0  0  4  0  0  0  0  0  0
   -2.5549    2.2658    6.8355 Si  0  0  0  0  0  4  0  0  0  0  0  0
    3.5866   -2.4676    6.6190 Si  0  0  0  0  0  4  0  0  0  0  0  0
    2.1844   -2.1524    4.9644 Si  0  0  0  0  0  4  0  0  0  0  0  0
    1.1581   -3.2088    4.9087 H   0  0  0  0  0  0  0  0  0  0  0  0
    2.9355   -2.2547    3.6804 H   0  0  0  0  0  0  0  0  0  0  0  0
   -2.1559    1.9535    9.0162 Si  0  0  0  0  0  4  0  0  0  0  0  0
    3.0235   -1.3823    8.4749 Si  0  0  0  0  0  4  0  0  0  0  0  0
    0.0265    1.6721    9.3012 Si  0  0  0  0  0  4  0  0  0  0  0  0
    1.0190   -1.9446    9.2152 Si  0  0  0  0  0  4  0  0  0  0  0  0
   -1.5784    3.1873    6.2671 H   0  0  0  0  0  0  0  0  0  0  0  0
   -3.9050    2.8850    6.7121 H   0  0  0  0  0  0  0  0  0  0  0  0
   -2.8382    0.7360    9.4598 H   0  0  0  0  0  0  0  0  0  0  0  0
   -2.5775    3.1325    9.7728 H   0  0  0  0  0  0  0  0  0  0  0  0
   -0.0636   -1.3760    8.4335 H   0  0  0  0  0  0  0  0  0  0  0  0
    0.9251   -3.4263    9.2100 H   0  0  0  0  0  0  0  0  0  0  0  0
    0.5025    0.9580   11.3694 Si  0  0  0  0  0  4  0  0  0  0  0  0
    1.7757    1.6001   11.7588 H   0  0  0  0  0  0  0  0  0  0  0  0
   -0.5456    1.3555   12.2903 H   0  0  0  0  0  0  0  0  0  0  0  0
    0.8386   -1.2513   11.3533 Si  0  0  0  0  0  4  0  0  0  0  0  0
    2.0224   -1.6259   12.1073 H   0  0  0  0  0  0  0  0  0  0  0  0
   -0.3288   -1.8855   11.9808 H   0  0  0  0  0  0  0  0  0  0  0  0
    0.4811    0.6314    8.3693 H   0  0  0  0  0  0  0  0  0  0  0  0
    0.7850    2.8949    8.9717 H   0  0  0  0  0  0  0  0  0  0  0  0
    4.0154   -1.7627    9.5181 H   0  0  0  0  0  0  0  0  0  0  0  0
    3.1520    0.0755    8.3124 H   0  0  0  0  0  0  0  0  0  0  0  0
    3.6437   -3.9109    6.9367 H   0  0  0  0  0  0  0  0  0  0  0  0
    4.9408   -2.0610    6.2466 H   0  0  0  0  0  0  0  0  0  0  0  0
   -1.7101   -0.6875    6.4570 H   0  0  0  0  0  0  0  0  0  0  0  0
   -3.9351   -0.2173    5.8193 H   0  0  0  0  0  0  0  0  0  0  0  0
  1  2  1  0
  1  5  1  0
  2  3  1  0
  2  4  1  0
  2 11  1  0
  5  6  1  0
  5  7  1  0
  5  8  1  0
  8  9  1  0
  8 36  1  0
  8 37  1  0
  9 14  1  0
  9 18  1  0
  9 19  1  0
 10 11  1  0
 10 15  1  0
 10 34  1  0
 10 35  1  0
 11 12  1  0
 11 13  1  0
 14 16  1  0
 14 20  1  0
 14 21  1  0
 15 17  1  0
 15 32  1  0
 15 33  1  0
 16 24  1  0
 16 30  1  0
 16 31  1  0
 17 22  1  0
 17 23  1  0
 17 27  1  0
 24 25  1  0
 24 26  1  0
 24 27  1  0
 27 28  1  0
 27 29  1  0
M  CHG  1   1   1
M  RAD  1   1   2
M  END
$$$$

     RDKit          3D

 37 37  0  0  0  0  0  0  0  0999 V2000
    0.0011    0.0008    3.1917 S   0  0  0  0  0  2  0  0  0  0  0  0
   -1.3205   -1.4300    4.0247 Si  0  0  0  0  0  4  0  0  0  0  0  0
   -1.6221   -2.4471    2.9903 H   0  0  0  0  0  0  0  0  0  0  0  0
   -0.6436   -2.1343    5.1252 H   0  0  0  0  0  0  0  0  0  0  0  0
   -0.3778    1.9842    3.8584 Si  0  0  0  0  0  4  0  0  0  0  0  0
   -1.7818    2.3680    3.7394 H   0  0  0  0  0  0  0  0  0  0  0  0
    0.4029    2.9066    3.0006 H   0  0  0  0  0  0  0  0  0  0  0  0
    0.2795    2.3161    5.9569 Si  0  0  0  0  0  4  0  0  0  0  0  0
   -1.1941    3.6565    6.9886 Si  0  0  0  0  0  4  0  0  0  0  0  0
   -3.4573   -0.8408    6.8726 Si  0  0  0  0  0  4  0  0  0  0  0  0
   -3.2482   -0.5456    4.6845 Si  0  0  0  0  0  4  0  0  0  0  0  0
   -3.3244    0.8724    4.3207 H   0  0  0  0  0  0  0  0  0  0  0  0
   -4.4069   -1.2255    4.0368 H   0  0  0  0  0  0  0  0  0  0  0  0
   -0.9586    3.4385    9.2081 Si  0  0  0  0  0  4  0  0  0  0  0  0
   -5.3330   -1.9278    7.3950 Si  0  0  0  0  0  4  0  0  0  0  0  0
   -1.1479    1.2743    9.7276 Si  0  0  0  0  0  4  0  0  0  0  0  0
   -5.5910   -1.7695    9.6283 Si  0  0  0  0  0  4  0  0  0  0  0  0
   -0.8318    5.0412    6.6411 H   0  0  0  0  0  0  0  0  0  0  0  0
   -2.5622    3.3570    6.5707 H   0  0  0  0  0  0  0  0  0  0  0  0
   -2.0145    4.2210    9.8448 H   0  0  0  0  0  0  0  0  0  0  0  0
    0.3902    3.9219    9.5498 H   0  0  0  0  0  0  0  0  0  0  0  0
   -6.0247   -3.0660   10.1352 H   0  0  0  0  0  0  0  0  0  0  0  0
   -6.5706   -0.7447    9.9714 H   0  0  0  0  0  0  0  0  0  0  0  0
   -3.1965    0.8725   10.5393 Si  0  0  0  0  0  4  0  0  0  0  0  0
   -3.2331    1.3872   11.9210 H   0  0  0  0  0  0  0  0  0  0  0  0
   -4.2191    1.5973    9.7829 H   0  0  0  0  0  0  0  0  0  0  0  0
   -3.5916   -1.3334   10.5632 Si  0  0  0  0  0  4  0  0  0  0  0  0
   -3.6308   -1.8351   11.9238 H   0  0  0  0  0  0  0  0  0  0  0  0
   -2.5456   -1.9866    9.7489 H   0  0  0  0  0  0  0  0  0  0  0  0
   -0.9208    0.4741    8.5254 H   0  0  0  0  0  0  0  0  0  0  0  0
   -0.1445    0.8622   10.7220 H   0  0  0  0  0  0  0  0  0  0  0  0
   -5.2909   -3.3334    7.0036 H   0  0  0  0  0  0  0  0  0  0  0  0
   -6.5146   -1.3257    6.7779 H   0  0  0  0  0  0  0  0  0  0  0  0
   -3.5311    0.4897    7.5069 H   0  0  0  0  0  0  0  0  0  0  0  0
   -2.3314   -1.6233    7.4369 H   0  0  0  0  0  0  0  0  0  0  0  0
    0.4279    1.0374    6.6708 H   0  0  0  0  0  0  0  0  0  0  0  0
    1.5851    3.0121    6.0065 H   0  0  0  0  0  0  0  0  0  0  0  0
  1  2  1  0
  1  5  1  0
  2  3  1  0
  2  4  1  0
  2 11  1  0
  5  6  1  0
  5  7  1  0
  5  8  1  0
  8  9  1  0
  8 36  1  0
  8 37  1  0
  9 14  1  0
  9 18  1  0
  9 19  1  0
 10 11  1  0
 10 15  1  0
 10 34  1  0
 10 35  1  0
 11 12  1  0
 11 13  1  0
 14 16  1  0
 14 20  1  0
 14 21  1  0
 15 17  1  0
 15 32  1  0
 15 33  1  0
 16 24  1  0
 16 30  1  0
 16 31  1  0
 17 22  1  0
 17 23  1  0
 17 27  1  0
 24 25  1  0
 24 26  1  0
 24 27  1  0
 27 28  1  0
 27 29  1  0
M  CHG  1   1   1
M  RAD  1   1   2
M  END
$$$$

     RDKit          3D

 37 37  0  0  0  0  0  0  0  0999 V2000
    0.0011    0.0008    3.1917 S   0  0  0  0  0  2  0  0  0  0  0  0
   -0.0106   -1.8993    4.1503 Si  0  0  0  0  0  4  0  0  0  0  0  0
   -0.3205   -2.9201    3.1085 H   0  0  0  0  0  0  0  0  0  0  0  0
   -1.1328   -1.9660    5.1106 H   0  0  0  0  0  0  0  0  0  0  0  0
   -1.8860    0.9854    3.5688 Si  0  0  0  0  0  4  0  0  0  0  0  0
   -1.6138    2.4025    3.8197 H   0  0  0  0  0  0  0  0  0  0  0  0
   -2.7852    0.8868    2.4380 H   0  0  0  0  0  0  0  0  0  0  0  0
   -2.7840    0.0667    5.3760 Si  0  0  0  0  0  4  0  0  0  0  0  0
   -4.4693    1.2245    6.1905 Si  0  0  0  0  0  4  0  0  0  0  0  0
    3.0536   -0.6985    5.8246 Si  0  0  0  0  0  4  0  0  0  0  0  0
    1.9137   -2.4243    5.0750 Si  0  0  0  0  0  4  0  0  0  0  0  0
    2.7418   -3.1755    4.1171 H   0  0  0  0  0  0  0  0  0  0  0  0
    1.6570   -3.3450    6.2139 H   0  0  0  0  0  0  0  0  0  0  0  0
   -4.2732    3.4035    5.8816 Si  0  0  0  0  0  4  0  0  0  0  0  0
    1.7548    0.9683    6.5068 Si  0  0  0  0  0  4  0  0  0  0  0  0
   -2.9237    4.3407    7.4177 Si  0  0  0  0  0  4  0  0  0  0  0  0
    0.7989    0.4062    8.4327 Si  0  0  0  0  0  4  0  0  0  0  0  0
   -5.7234    0.7604    5.5668 H   0  0  0  0  0  0  0  0  0  0  0  0
   -4.5438    0.9750    7.6523 H   0  0  0  0  0  0  0  0  0  0  0  0
   -3.8790    3.7698    4.5278 H   0  0  0  0  0  0  0  0  0  0  0  0
   -5.6138    4.0155    6.1115 H   0  0  0  0  0  0  0  0  0  0  0  0
    1.8475    0.3011    9.4481 H   0  0  0  0  0  0  0  0  0  0  0  0
    0.0786   -0.8791    8.3354 H   0  0  0  0  0  0  0  0  0  0  0  0
   -0.8881    3.4733    7.3450 Si  0  0  0  0  0  4  0  0  0  0  0  0
    0.0888    4.5782    7.4082 H   0  0  0  0  0  0  0  0  0  0  0  0
   -0.7126    2.7950    6.0666 H   0  0  0  0  0  0  0  0  0  0  0  0
   -0.6023    2.0416    9.0451 Si  0  0  0  0  0  4  0  0  0  0  0  0
   -0.0772    2.7939   10.1931 H   0  0  0  0  0  0  0  0  0  0  0  0
   -1.9146    1.4909    9.4235 H   0  0  0  0  0  0  0  0  0  0  0  0
   -3.5787    4.1371    8.7254 H   0  0  0  0  0  0  0  0  0  0  0  0
   -2.9189    5.7923    7.1325 H   0  0  0  0  0  0  0  0  0  0  0  0
    2.6163    2.1373    6.7580 H   0  0  0  0  0  0  0  0  0  0  0  0
    0.7807    1.3655    5.4880 H   0  0  0  0  0  0  0  0  0  0  0  0
    4.0252   -0.2289    4.8220 H   0  0  0  0  0  0  0  0  0  0  0  0
    3.8604   -1.1367    6.9963 H   0  0  0  0  0  0  0  0  0  0  0  0
   -3.2817   -1.2922    5.0246 H   0  0  0  0  0  0  0  0  0  0  0  0
   -1.7204   -0.1416    6.3724 H   0  0  0  0  0  0  0  0  0  0  0  0
  1  2  1  0
  1  5  1  0
  2  3  1  0
  2  4  1  0
  2 11  1  0
  5  6  1  0
  5  7  1  0
  5  8  1  0
  8  9  1  0
  8 36  1  0
  8 37  1  0
  9 14  1  0
  9 18  1  0
  9 19  1  0
 10 11  1  0
 10 15  1  0
 10 34  1  0
 10 35  1  0
 11 12  1  0
 11 13  1  0
 14 16  1  0
 14 20  1  0
 14 21  1  0
 15 17  1  0
 15 32  1  0
 15 33  1  0
 16 24  1  0
 16 30  1  0
 16 31  1  0
 17 22  1  0
 17 23  1  0
 17 27  1  0
 24 25  1  0
 24 26  1  0
 24 27  1  0
 27 28  1  0
 27 29  1  0
M  CHG  1   1   1
M  RAD  1   1   2
M  END
$$$$

     RDKit          3D

 37 37  0  0  0  0  0  0  0  0999 V2000
    0.0011    0.0008    3.1917 S   0  0  0  0  0  2  0  0  0  0  0  0
   -0.0540    1.9002    4.1503 Si  0  0  0  0  0  4  0  0  0  0  0  0
    0.2190    2.9313    3.1083 H   0  0  0  0  0  0  0  0  0  0  0  0
    1.0657    2.0066    5.1099 H   0  0  0  0  0  0  0  0  0  0  0  0
    1.9221   -0.9163    3.5677 Si  0  0  0  0  0  4  0  0  0  0  0  0
    1.7004   -2.3421    3.8187 H   0  0  0  0  0  0  0  0  0  0  0  0
    2.8166   -0.7859    2.4364 H   0  0  0  0  0  0  0  0  0  0  0  0
    2.7881    0.0336    5.3743 Si  0  0  0  0  0  4  0  0  0  0  0  0
    4.5138   -1.0638    6.1878 Si  0  0  0  0  0  4  0  0  0  0  0  0
   -3.0728    0.5915    5.8264 Si  0  0  0  0  0  4  0  0  0  0  0  0
   -1.9952    2.3567    5.0761 Si  0  0  0  0  0  4  0  0  0  0  0  0
   -2.8499    3.0780    4.1187 H   0  0  0  0  0  0  0  0  0  0  0  0
   -1.7705    3.2858    6.2149 H   0  0  0  0  0  0  0  0  0  0  0  0
    4.3948   -3.2483    5.8790 Si  0  0  0  0  0  4  0  0  0  0  0  0
   -1.7153   -1.0282    6.5078 Si  0  0  0  0  0  4  0  0  0  0  0  0
    3.0802   -4.2327    7.4160 Si  0  0  0  0  0  4  0  0  0  0  0  0
   -0.7788   -0.4325    8.4332 Si  0  0  0  0  0  4  0  0  0  0  0  0
    5.7503   -0.5555    5.5634 H   0  0  0  0  0  0  0  0  0  0  0  0
    4.5803   -0.8118    7.6496 H   0  0  0  0  0  0  0  0  0  0  0  0
    4.0131   -3.6284    4.5255 H   0  0  0  0  0  0  0  0  0  0  0  0
    5.7564   -3.8124    6.1081 H   0  0  0  0  0  0  0  0  0  0  0  0
   -1.8299   -0.3647    9.4492 H   0  0  0  0  0  0  0  0  0  0  0  0
   -0.1046    0.8775    8.3354 H   0  0  0  0  0  0  0  0  0  0  0  0
    1.0151   -3.4380    7.3444 Si  0  0  0  0  0  4  0  0  0  0  0  0
    0.0781   -4.5768    7.4082 H   0  0  0  0  0  0  0  0  0  0  0  0
    0.8150   -2.7663    6.0662 H   0  0  0  0  0  0  0  0  0  0  0  0
    0.6799   -2.0173    9.0448 Si  0  0  0  0  0  4  0  0  0  0  0  0
    0.1824   -2.7877   10.1930 H   0  0  0  0  0  0  0  0  0  0  0  0
    1.9721   -1.4205    9.4224 H   0  0  0  0  0  0  0  0  0  0  0  0
    3.7284   -4.0060    8.7232 H   0  0  0  0  0  0  0  0  0  0  0  0
    3.1268   -5.6835    7.1307 H   0  0  0  0  0  0  0  0  0  0  0  0
   -2.5347   -2.2270    6.7596 H   0  0  0  0  0  0  0  0  0  0  0  0
   -0.7283   -1.3907    5.4884 H   0  0  0  0  0  0  0  0  0  0  0  0
   -4.0276    0.0878    4.8244 H   0  0  0  0  0  0  0  0  0  0  0  0
   -3.8938    1.0009    6.9985 H   0  0  0  0  0  0  0  0  0  0  0  0
    3.2370    1.4093    5.0226 H   0  0  0  0  0  0  0  0  0  0  0  0
    1.7183    0.2042    6.3714 H   0  0  0  0  0  0  0  0  0  0  0  0
  1  2  1  0
  1  5  1  0
  2  3  1  0
  2  4  1  0
  2 11  1  0
  5  6  1  0
  5  7  1  0
  5  8  1  0
  8  9  1  0
  8 36  1  0
  8 37  1  0
  9 14  1  0
  9 18  1  0
  9 19  1  0
 10 11  1  0
 10 15  1  0
 10 34  1  0
 10 35  1  0
 11 12  1  0
 11 13  1  0
 14 16  1  0
 14 20  1  0
 14 21  1  0
 15 17  1  0
 15 32  1  0
 15 33  1  0
 16 24  1  0
 16 30  1  0
 16 31  1  0
 17 22  1  0
 17 23  1  0
 17 27  1  0
 24 25  1  0
 24 26  1  0
 24 27  1  0
 27 28  1  0
 27 29  1  0
M  CHG  1   1   1
M  RAD  1   1   2
M  END
$$$$

     RDKit          3D

 37 37  0  0  0  0  0  0  0  0999 V2000
    0.0011    0.0008    3.1917 S   0  0  0  0  0  2  0  0  0  0  0  0
   -0.1882    1.8915    4.1504 Si  0  0  0  0  0  4  0  0  0  0  0  0
    0.0111    2.9394    3.1084 H   0  0  0  0  0  0  0  0  0  0  0  0
    0.9211    2.0768    5.1099 H   0  0  0  0  0  0  0  0  0  0  0  0
    1.9821   -0.7781    3.5677 Si  0  0  0  0  0  4  0  0  0  0  0  0
    1.8619   -2.2161    3.8187 H   0  0  0  0  0  0  0  0  0  0  0  0
    2.8652   -0.5847    2.4363 H   0  0  0  0  0  0  0  0  0  0  0  0
    2.7788    0.2307    5.3743 Si  0  0  0  0  0  4  0  0  0  0  0  0
    4.5778   -0.7419    6.1878 Si  0  0  0  0  0  4  0  0  0  0  0  0
   -3.1068    0.3725    5.8264 Si  0  0  0  0  0  4  0  0  0  0  0  0
   -2.1569    2.2095    5.0762 Si  0  0  0  0  0  4  0  0  0  0  0  0
   -3.0605    2.8685    4.1188 H   0  0  0  0  0  0  0  0  0  0  0  0
   -1.9985    3.1522    6.2149 H   0  0  0  0  0  0  0  0  0  0  0  0
    4.6137   -2.9293    5.8790 Si  0  0  0  0  0  4  0  0  0  0  0  0
   -1.6382   -1.1471    6.5078 Si  0  0  0  0  0  4  0  0  0  0  0  0
    3.3721   -4.0043    7.4159 Si  0  0  0  0  0  4  0  0  0  0  0  0
   -0.7462   -0.4867    8.4332 Si  0  0  0  0  0  4  0  0  0  0  0  0
    5.7752   -0.1474    5.5634 H   0  0  0  0  0  0  0  0  0  0  0  0
    4.6263   -0.4858    7.6496 H   0  0  0  0  0  0  0  0  0  0  0  0
    4.2598   -3.3355    4.5254 H   0  0  0  0  0  0  0  0  0  0  0  0
    6.0118   -3.3957    6.1081 H   0  0  0  0  0  0  0  0  0  0  0  0
   -1.7995   -0.4935    9.4492 H   0  0  0  0  0  0  0  0  0  0  0  0
   -0.1663    0.8677    8.3355 H   0  0  0  0  0  0  0  0  0  0  0  0
    1.2559   -3.3577    7.3443 Si  0  0  0  0  0  4  0  0  0  0  0  0
    0.4018   -4.5599    7.4081 H   0  0  0  0  0  0  0  0  0  0  0  0
    1.0087   -2.7019    6.0661 H   0  0  0  0  0  0  0  0  0  0  0  0
    0.8210   -1.9644    9.0447 Si  0  0  0  0  0  4  0  0  0  0  0  0
    0.3792   -2.7680   10.1930 H   0  0  0  0  0  0  0  0  0  0  0  0
    2.0677   -1.2776    9.4223 H   0  0  0  0  0  0  0  0  0  0  0  0
    4.0025   -3.7324    8.7232 H   0  0  0  0  0  0  0  0  0  0  0  0
    3.5211   -5.4482    7.1306 H   0  0  0  0  0  0  0  0  0  0  0  0
   -2.3707   -2.4009    6.7595 H   0  0  0  0  0  0  0  0  0  0  0  0
   -0.6281   -1.4389    5.4884 H   0  0  0  0  0  0  0  0  0  0  0  0
   -4.0237   -0.1975    4.8244 H   0  0  0  0  0  0  0  0  0  0  0  0
   -3.9548    0.7228    6.9986 H   0  0  0  0  0  0  0  0  0  0  0  0
    3.1293    1.6347    5.0227 H   0  0  0  0  0  0  0  0  0  0  0  0
    1.6996    0.3251    6.3714 H   0  0  0  0  0  0  0  0  0  0  0  0
  1  2  1  0
  1  5  1  0
  2  3  1  0
  2  4  1  0
  2 11  1  0
  5  6  1  0
  5  7  1  0
  5  8  1  0
  8  9  1  0
  8 36  1  0
  8 37  1  0
  9 14  1  0
  9 18  1  0
  9 19  1  0
 10 11  1  0
 10 15  1  0
 10 34  1  0
 10 35  1  0
 11 12  1  0
 11 13  1  0
 14 16  1  0
 14 20  1  0
 14 21  1  0
 15 17  1  0
 15 32  1  0
 15 33  1  0
 16 24  1  0
 16 30  1  0
 16 31  1  0
 17 22  1  0
 17 23  1  0
 17 27  1  0
 24 25  1  0
 24 26  1  0
 24 27  1  0
 27 28  1  0
 27 29  1  0
M  CHG  1   1   1
M  RAD  1   1   2
M  END
$$$$

     RDKit          3D

 37 37  0  0  0  0  0  0  0  0999 V2000
    0.0011    0.0008    3.1917 S   0  0  0  0  0  2  0  0  0  0  0  0
    1.1412   -0.3435    5.0022 Si  0  0  0  0  0  4  0  0  0  0  0  0
    0.2086   -0.1905    6.1177 H   0  0  0  0  0  0  0  0  0  0  0  0
    2.2535    0.6239    5.0612 H   0  0  0  0  0  0  0  0  0  0  0  0
   -1.9158    0.7949    3.6262 Si  0  0  0  0  0  4  0  0  0  0  0  0
   -2.0359    2.2288    3.2426 H   0  0  0  0  0  0  0  0  0  0  0  0
   -2.9091    0.0797    2.7780 H   0  0  0  0  0  0  0  0  0  0  0  0
   -2.4728    0.6188    5.7570 Si  0  0  0  0  0  4  0  0  0  0  0  0
   -2.2328    2.5842    6.8354 Si  0  0  0  0  0  4  0  0  0  0  0  0
    3.2285   -2.9201    6.6191 Si  0  0  0  0  0  4  0  0  0  0  0  0
    1.8804   -2.4223    4.9645 Si  0  0  0  0  0  4  0  0  0  0  0  0
    0.7234   -3.3336    4.9088 H   0  0  0  0  0  0  0  0  0  0  0  0
    2.6114   -2.6231    3.6805 H   0  0  0  0  0  0  0  0  0  0  0  0
   -1.8786    2.2219    9.0161 Si  0  0  0  0  0  4  0  0  0  0  0  0
    2.8139   -1.7698    8.4749 Si  0  0  0  0  0  4  0  0  0  0  0  0
    0.2474    1.6543    9.3011 Si  0  0  0  0  0  4  0  0  0  0  0  0
    0.7527   -2.0620    9.2153 Si  0  0  0  0  0  4  0  0  0  0  0  0
   -1.1429    3.3684    6.2669 H   0  0  0  0  0  0  0  0  0  0  0  0
   -3.4891    3.3765    6.7120 H   0  0  0  0  0  0  0  0  0  0  0  0
   -2.7159    1.1054    9.4597 H   0  0  0  0  0  0  0  0  0  0  0  0
   -2.1405    3.4464    9.7727 H   0  0  0  0  0  0  0  0  0  0  0  0
   -0.2452   -1.3552    8.4336 H   0  0  0  0  0  0  0  0  0  0  0  0
    0.4636   -3.5181    9.2101 H   0  0  0  0  0  0  0  0  0  0  0  0
    0.6247    0.8836   11.3693 Si  0  0  0  0  0  4  0  0  0  0  0  0
    1.9717    1.3516   11.7588 H   0  0  0  0  0  0  0  0  0  0  0  0
   -0.3615    1.4163   12.2902 H   0  0  0  0  0  0  0  0  0  0  0  0
    0.6656   -1.3507   11.3533 Si  0  0  0  0  0  4  0  0  0  0  0  0
    1.7895   -1.8786   12.1074 H   0  0  0  0  0  0  0  0  0  0  0  0
   -0.5754   -1.8250   11.9808 H   0  0  0  0  0  0  0  0  0  0  0  0
    0.5604    0.5626    8.3693 H   0  0  0  0  0  0  0  0  0  0  0  0
    1.1610    2.7660    8.9716 H   0  0  0  0  0  0  0  0  0  0  0  0
    3.7468   -2.2781    9.5182 H   0  0  0  0  0  0  0  0  0  0  0  0
    3.1342   -0.3418    8.3124 H   0  0  0  0  0  0  0  0  0  0  0  0
    3.0942   -4.3583    6.9369 H   0  0  0  0  0  0  0  0  0  0  0  0
    4.6247   -2.6962    6.2467 H   0  0  0  0  0  0  0  0  0  0  0  0
   -1.7861   -0.4549    6.4570 H   0  0  0  0  0  0  0  0  0  0  0  0
   -3.9293    0.3054    5.8193 H   0  0  0  0  0  0  0  0  0  0  0  0
  1  2  1  0
  1  5  1  0
  2  3  1  0
  2  4  1  0
  2 11  1  0
  5  6  1  0
  5  7  1  0
  5  8  1  0
  8  9  1  0
  8 36  1  0
  8 37  1  0
  9 14  1  0
  9 18  1  0
  9 19  1  0
 10 11  1  0
 10 15  1  0
 10 34  1  0
 10 35  1  0
 11 12  1  0
 11 13  1  0
 14 16  1  0
 14 20  1  0
 14 21  1  0
 15 17  1  0
 15 32  1  0
 15 33  1  0
 16 24  1  0
 16 30  1  0
 16 31  1  0
 17 22  1  0
 17 23  1  0
 17 27  1  0
 24 25  1  0
 24 26  1  0
 24 27  1  0
 27 28  1  0
 27 29  1  0
M  CHG  1   1   1
M  RAD  1   1   2
M  END
$$$$

     RDKit          3D

 37 37  0  0  0  0  0  0  0  0999 V2000
    0.0011    0.0008    3.1917 S   0  0  0  0  0  2  0  0  0  0  0  0
   -2.1535    0.2228    3.2920 Si  0  0  0  0  0  4  0  0  0  0  0  0
   -2.6486    0.1008    1.9227 H   0  0  0  0  0  0  0  0  0  0  0  0
   -2.5138    1.5501    3.8017 H   0  0  0  0  0  0  0  0  0  0  0  0
    0.7065   -0.3115    5.1680 Si  0  0  0  0  0  4  0  0  0  0  0  0
    1.4382    0.9080    5.6025 H   0  0  0  0  0  0  0  0  0  0  0  0
   -0.4049   -0.4674    6.1414 H   0  0  0  0  0  0  0  0  0  0  0  0
    2.0363   -2.0591    5.3601 Si  0  0  0  0  0  4  0  0  0  0  0  0
    1.9871   -2.9095    7.4466 Si  0  0  0  0  0  4  0  0  0  0  0  0
   -3.4013   -0.6710    6.6463 Si  0  0  0  0  0  4  0  0  0  0  0  0
   -2.9255   -1.3906    4.6103 Si  0  0  0  0  0  4  0  0  0  0  0  0
   -4.1181   -1.9783    3.9358 H   0  0  0  0  0  0  0  0  0  0  0  0
   -1.9380   -2.5055    4.6812 H   0  0  0  0  0  0  0  0  0  0  0  0
   -0.0585   -3.6499    7.9416 Si  0  0  0  0  0  4  0  0  0  0  0  0
   -2.9575    1.4701    6.9388 Si  0  0  0  0  0  4  0  0  0  0  0  0
   -0.5826   -3.3284   10.0597 Si  0  0  0  0  0  4  0  0  0  0  0  0
   -1.9572    1.9019    8.8600 Si  0  0  0  0  0  4  0  0  0  0  0  0
    2.9640   -4.0276    7.4512 H   0  0  0  0  0  0  0  0  0  0  0  0
    2.4384   -1.9428    8.4287 H   0  0  0  0  0  0  0  0  0  0  0  0
   -0.0487   -5.1233    7.7052 H   0  0  0  0  0  0  0  0  0  0  0  0
   -1.0134   -3.0855    7.0022 H   0  0  0  0  0  0  0  0  0  0  0  0
   -1.1439    3.1382    8.6807 H   0  0  0  0  0  0  0  0  0  0  0  0
   -2.9121    2.1837    9.9361 H   0  0  0  0  0  0  0  0  0  0  0  0
   -1.6651   -1.4288   10.4173 Si  0  0  0  0  0  4  0  0  0  0  0  0
   -3.0795   -1.4970    9.9951 H   0  0  0  0  0  0  0  0  0  0  0  0
   -1.7005   -1.2120   11.8919 H   0  0  0  0  0  0  0  0  0  0  0  0
   -0.5969    0.2916    9.5195 Si  0  0  0  0  0  4  0  0  0  0  0  0
    0.2522   -0.2172    8.4358 H   0  0  0  0  0  0  0  0  0  0  0  0
    0.3349    0.8718   10.5297 H   0  0  0  0  0  0  0  0  0  0  0  0
    0.6609   -3.3050   10.8555 H   0  0  0  0  0  0  0  0  0  0  0  0
   -1.4305   -4.4334   10.5625 H   0  0  0  0  0  0  0  0  0  0  0  0
   -2.1918    1.9699    5.7895 H   0  0  0  0  0  0  0  0  0  0  0  0
   -4.2515    2.2103    6.9250 H   0  0  0  0  0  0  0  0  0  0  0  0
   -2.6478   -1.4458    7.6347 H   0  0  0  0  0  0  0  0  0  0  0  0
   -4.8400   -0.9604    6.9023 H   0  0  0  0  0  0  0  0  0  0  0  0
    3.4353   -1.5980    5.1460 H   0  0  0  0  0  0  0  0  0  0  0  0
    1.7776   -3.1117    4.4013 H   0  0  0  0  0  0  0  0  0  0  0  0
  1  2  1  0
  1  5  1  0
  2  3  1  0
  2  4  1  0
  2 11  1  0
  5  6  1  0
  5  7  1  0
  5  8  1  0
  8  9  1  0
  8 36  1  0
  8 37  1  0
  9 14  1  0
  9 18  1  0
  9 19  1  0
 10 11  1  0
 10 15  1  0
 10 34  1  0
 10 35  1  0
 11 12  1  0
 11 13  1  0
 14 16  1  0
 14 20  1  0
 14 21  1  0
 15 17  1  0
 15 32  1  0
 15 33  1  0
 16 24  1  0
 16 30  1  0
 16 31  1  0
 17 22  1  0
 17 23  1  0
 17 27  1  0
 24 25  1  0
 24 26  1  0
 24 27  1  0
 27 28  1  0
 27 29  1  0
M  CHG  1   1   1
M  RAD  1   1   2
M  END
$$$$

     RDKit          3D

 37 37  0  0  0  0  0  0  0  0999 V2000
    0.0011    0.0008    3.1917 S   0  0  0  0  0  2  0  0  0  0  0  0
    0.7025   -0.7777    5.0451 Si  0  0  0  0  0  4  0  0  0  0  0  0
    2.1157   -0.5494    5.2651 H   0  0  0  0  0  0  0  0  0  0  0  0
   -0.0524   -0.0886    6.1304 H   0  0  0  0  0  0  0  0  0  0  0  0
   -2.1118    0.2867    3.3344 Si  0  0  0  0  0  4  0  0  0  0  0  0
   -2.6539   -0.8687    4.1058 H   0  0  0  0  0  0  0  0  0  0  0  0
   -2.7288    0.1761    1.9890 H   0  0  0  0  0  0  0  0  0  0  0  0
   -2.6574    2.1831    4.3136 Si  0  0  0  0  0  4  0  0  0  0  0  0
   -0.9814    3.1904    5.3142 Si  0  0  0  0  0  4  0  0  0  0  0  0
    0.1603   -3.3987    7.4541 Si  0  0  0  0  0  4  0  0  0  0  0  0
    0.1713   -2.9589    5.2653 Si  0  0  0  0  0  4  0  0  0  0  0  0
    1.2367   -3.7491    4.6305 H   0  0  0  0  0  0  0  0  0  0  0  0
   -1.1389   -3.1945    4.6525 H   0  0  0  0  0  0  0  0  0  0  0  0
   -1.8201    4.5374    6.9169 Si  0  0  0  0  0  4  0  0  0  0  0  0
   -1.8141   -2.9400    8.3679 Si  0  0  0  0  0  4  0  0  0  0  0  0
   -3.4228    3.5027    8.0605 Si  0  0  0  0  0  4  0  0  0  0  0  0
   -2.4798   -0.8666    7.9252 Si  0  0  0  0  0  4  0  0  0  0  0  0
   -0.2360    4.0228    4.3461 H   0  0  0  0  0  0  0  0  0  0  0  0
   -0.0331    2.3046    5.9546 H   0  0  0  0  0  0  0  0  0  0  0  0
   -0.7184    4.9460    7.8313 H   0  0  0  0  0  0  0  0  0  0  0  0
   -2.3001    5.7439    6.2462 H   0  0  0  0  0  0  0  0  0  0  0  0
   -2.4233   -0.5494    6.5113 H   0  0  0  0  0  0  0  0  0  0  0  0
   -3.8969   -0.7571    8.3501 H   0  0  0  0  0  0  0  0  0  0  0  0
   -2.6086    2.3183    9.7558 Si  0  0  0  0  0  4  0  0  0  0  0  0
   -1.8355    3.2063   10.6111 H   0  0  0  0  0  0  0  0  0  0  0  0
   -3.7420    1.8112   10.5383 H   0  0  0  0  0  0  0  0  0  0  0  0
   -1.3280    0.6459    9.0839 Si  0  0  0  0  0  4  0  0  0  0  0  0
   -0.7199    0.0076   10.2326 H   0  0  0  0  0  0  0  0  0  0  0  0
   -0.2265    1.1858    8.2447 H   0  0  0  0  0  0  0  0  0  0  0  0
   -4.3114    4.5344    8.6189 H   0  0  0  0  0  0  0  0  0  0  0  0
   -4.1823    2.6659    7.1387 H   0  0  0  0  0  0  0  0  0  0  0  0
   -2.8442   -3.8637    7.8691 H   0  0  0  0  0  0  0  0  0  0  0  0
   -1.6605   -3.0545    9.8344 H   0  0  0  0  0  0  0  0  0  0  0  0
    0.4695   -4.7965    7.6827 H   0  0  0  0  0  0  0  0  0  0  0  0
    1.1599   -2.5055    8.1062 H   0  0  0  0  0  0  0  0  0  0  0  0
   -3.7275    1.9296    5.2870 H   0  0  0  0  0  0  0  0  0  0  0  0
   -3.2109    3.0983    3.2825 H   0  0  0  0  0  0  0  0  0  0  0  0
  1  2  1  0
  1  5  1  0
  2  3  1  0
  2  4  1  0
  2 11  1  0
  5  6  1  0
  5  7  1  0
  5  8  1  0
  8  9  1  0
  8 36  1  0
  8 37  1  0
  9 14  1  0
  9 18  1  0
  9 19  1  0
 10 11  1  0
 10 15  1  0
 10 34  1  0
 10 35  1  0
 11 12  1  0
 11 13  1  0
 14 16  1  0
 14 20  1  0
 14 21  1  0
 15 17  1  0
 15 32  1  0
 15 33  1  0
 16 24  1  0
 16 30  1  0
 16 31  1  0
 17 22  1  0
 17 23  1  0
 17 27  1  0
 24 25  1  0
 24 26  1  0
 24 27  1  0
 27 28  1  0
 27 29  1  0
M  CHG  1   1   1
M  RAD  1   1   2
M  END
$$$$
