
     RDKit          3D

 37 37  0  0  0  0  0  0  0  0999 V2000
    1.2480    0.0530    2.1118 S   0  0  0  0  0  2  0  0  0  0  0  0
    2.2611    1.3803    3.4035 Si  0  0  0  0  0  4  0  0  0  0  0  0
    1.4163    1.7712    4.5414 H   0  0  0  0  0  0  0  0  0  0  0  0
    2.5224    2.6376    2.6444 H   0  0  0  0  0  0  0  0  0  0  0  0
    1.4068   -1.9767    2.6530 Si  0  0  0  0  0  4  0  0  0  0  0  0
    1.2530   -2.8347    1.4435 H   0  0  0  0  0  0  0  0  0  0  0  0
    2.7890   -2.2362    3.1360 H   0  0  0  0  0  0  0  0  0  0  0  0
   -0.1208   -2.6248    4.1227 Si  0  0  0  0  0  4  0  0  0  0  0  0
   -1.1342   -0.9564    5.1262 Si  0  0  0  0  0  4  0  0  0  0  0  0
    4.1136   -1.1490    5.3578 Si  0  0  0  0  0  4  0  0  0  0  0  0
    4.2428    0.6212    4.0659 Si  0  0  0  0  0  4  0  0  0  0  0  0
    5.0725    0.4149    2.8624 H   0  0  0  0  0  0  0  0  0  0  0  0
    4.8881    1.7215    4.8376 H   0  0  0  0  0  0  0  0  0  0  0  0
   -0.0459   -0.1036    6.8310 Si  0  0  0  0  0  4  0  0  0  0  0  0
    4.7820   -0.7380    7.4525 Si  0  0  0  0  0  4  0  0  0  0  0  0
   -0.0364   -1.3651    8.6355 Si  0  0  0  0  0  4  0  0  0  0  0  0
    3.9456   -2.3321    8.8037 Si  0  0  0  0  0  4  0  0  0  0  0  0
   -2.4821   -1.3805    5.5910 H   0  0  0  0  0  0  0  0  0  0  0  0
   -1.3792    0.1186    4.1370 H   0  0  0  0  0  0  0  0  0  0  0  0
    1.3352    0.2587    6.4581 H   0  0  0  0  0  0  0  0  0  0  0  0
   -0.7102    1.1751    7.1929 H   0  0  0  0  0  0  0  0  0  0  0  0
    3.2980   -1.7410    9.9793 H   0  0  0  0  0  0  0  0  0  0  0  0
    5.1147   -3.1003    9.3188 H   0  0  0  0  0  0  0  0  0  0  0  0
    0.4864   -3.4804    8.2393 Si  0  0  0  0  0  4  0  0  0  0  0  0
   -0.4003   -4.0210    7.2229 H   0  0  0  0  0  0  0  0  0  0  0  0
    0.2588   -4.2423    9.4807 H   0  0  0  0  0  0  0  0  0  0  0  0
    2.6382   -3.7270    7.6987 Si  0  0  0  0  0  4  0  0  0  0  0  0
    3.0328   -5.1397    7.9594 H   0  0  0  0  0  0  0  0  0  0  0  0
    2.8371   -3.5201    6.2505 H   0  0  0  0  0  0  0  0  0  0  0  0
   -1.3556   -1.3175    9.2694 H   0  0  0  0  0  0  0  0  0  0  0  0
    0.9479   -0.8261    9.5863 H   0  0  0  0  0  0  0  0  0  0  0  0
    6.2274   -0.6666    7.5349 H   0  0  0  0  0  0  0  0  0  0  0  0
    4.2158    0.5484    7.9157 H   0  0  0  0  0  0  0  0  0  0  0  0
    2.7315   -1.6388    5.4614 H   0  0  0  0  0  0  0  0  0  0  0  0
    4.9878   -2.2053    4.8193 H   0  0  0  0  0  0  0  0  0  0  0  0
    0.5767   -3.5227    5.0840 H   0  0  0  0  0  0  0  0  0  0  0  0
   -1.1531   -3.4826    3.4764 H   0  0  0  0  0  0  0  0  0  0  0  0
  1  2  1  0
  1  5  1  0
  2  3  1  0
  2  4  1  0
  2 11  1  0
  5  6  1  0
  5  7  1  0
  5  8  1  0
  8  9  1  0
  8 36  1  0
  8 37  1  0
  9 14  1  0
  9 18  1  0
  9 19  1  0
 10 11  1  0
 10 15  1  0
 10 34  1  0
 10 35  1  0
 11 12  1  0
 11 13  1  0
 14 16  1  0
 14 20  1  0
 14 21  1  0
 15 17  1  0
 15 32  1  0
 15 33  1  0
 16 24  1  0
 16 30  1  0
 16 31  1  0
 17 22  1  0
 17 23  1  0
 17 27  1  0
 24 25  1  0
 24 26  1  0
 24 27  1  0
 27 28  1  0
 27 29  1  0
M  CHG  1   1   1
M  RAD  1   1   2
M  END
$$$$

     RDKit          3D

 37 37  0  0  0  0  0  0  0  0999 V2000
    1.2480    0.0530    2.1118 S   0  0  0  0  0  2  0  0  0  0  0  0
    2.8336    1.2190    2.9242 Si  0  0  0  0  0  4  0  0  0  0  0  0
    4.1099    0.6657    2.4454 H   0  0  0  0  0  0  0  0  0  0  0  0
    2.6941    2.6334    2.4828 H   0  0  0  0  0  0  0  0  0  0  0  0
   -0.2732   -0.3537    3.5951 Si  0  0  0  0  0  4  0  0  0  0  0  0
    0.3121   -0.5901    4.9023 H   0  0  0  0  0  0  0  0  0  0  0  0
   -0.9203   -1.6262    3.1698 H   0  0  0  0  0  0  0  0  0  0  0  0
   -1.8145    1.2248    3.5887 Si  0  0  0  0  0  4  0  0  0  0  0  0
   -2.7162    1.5915    5.5647 Si  0  0  0  0  0  4  0  0  0  0  0  0
    3.5880    2.9664    6.0689 Si  0  0  0  0  0  4  0  0  0  0  0  0
    2.7157    1.1280    5.1540 Si  0  0  0  0  0  4  0  0  0  0  0  0
    3.4050   -0.0385    5.6784 H   0  0  0  0  0  0  0  0  0  0  0  0
    1.2794    1.1257    5.4684 H   0  0  0  0  0  0  0  0  0  0  0  0
   -3.0825   -0.2616    6.7178 Si  0  0  0  0  0  4  0  0  0  0  0  0
    3.0631    3.1932    8.1854 Si  0  0  0  0  0  4  0  0  0  0  0  0
   -2.8648    0.0867    8.9273 Si  0  0  0  0  0  4  0  0  0  0  0  0
    2.4446    1.2803    9.1511 Si  0  0  0  0  0  4  0  0  0  0  0  0
   -4.0305    2.2613    5.3581 H   0  0  0  0  0  0  0  0  0  0  0  0
   -1.8959    2.5717    6.3302 H   0  0  0  0  0  0  0  0  0  0  0  0
   -4.4882   -0.7109    6.5110 H   0  0  0  0  0  0  0  0  0  0  0  0
   -2.2258   -1.3745    6.2911 H   0  0  0  0  0  0  0  0  0  0  0  0
    2.0483    1.6031   10.5392 H   0  0  0  0  0  0  0  0  0  0  0  0
    3.5446    0.3281    9.2196 H   0  0  0  0  0  0  0  0  0  0  0  0
   -0.7697   -0.4992    9.5217 Si  0  0  0  0  0  4  0  0  0  0  0  0
   -0.7199   -1.9837    9.4011 H   0  0  0  0  0  0  0  0  0  0  0  0
   -0.5178   -0.1772   10.9185 H   0  0  0  0  0  0  0  0  0  0  0  0
    0.6530    0.4431    8.1269 Si  0  0  0  0  0  4  0  0  0  0  0  0
   -0.0108    1.5813    7.4415 H   0  0  0  0  0  0  0  0  0  0  0  0
    1.1154   -0.5653    7.1661 H   0  0  0  0  0  0  0  0  0  0  0  0
   -2.9739    1.5295    9.1515 H   0  0  0  0  0  0  0  0  0  0  0  0
   -3.8526   -0.6646    9.6868 H   0  0  0  0  0  0  0  0  0  0  0  0
    1.9960    4.1948    8.4223 H   0  0  0  0  0  0  0  0  0  0  0  0
    4.2514    3.6861    8.9244 H   0  0  0  0  0  0  0  0  0  0  0  0
    3.0228    4.1243    5.3176 H   0  0  0  0  0  0  0  0  0  0  0  0
    5.0501    3.0331    5.8440 H   0  0  0  0  0  0  0  0  0  0  0  0
   -1.1743    2.4872    3.1252 H   0  0  0  0  0  0  0  0  0  0  0  0
   -2.8807    0.9064    2.6223 H   0  0  0  0  0  0  0  0  0  0  0  0
  1  2  1  0
  1  5  1  0
  2  3  1  0
  2  4  1  0
  2 11  1  0
  5  6  1  0
  5  7  1  0
  5  8  1  0
  8  9  1  0
  8 36  1  0
  8 37  1  0
  9 14  1  0
  9 18  1  0
  9 19  1  0
 10 11  1  0
 10 15  1  0
 10 34  1  0
 10 35  1  0
 11 12  1  0
 11 13  1  0
 14 16  1  0
 14 20  1  0
 14 21  1  0
 15 17  1  0
 15 32  1  0
 15 33  1  0
 16 24  1  0
 16 30  1  0
 16 31  1  0
 17 22  1  0
 17 23  1  0
 17 27  1  0
 24 25  1  0
 24 26  1  0
 24 27  1  0
 27 28  1  0
 27 29  1  0
M  CHG  1   1   1
M  RAD  1   1   2
M  END
$$$$

     RDKit          3D

 37 37  0  0  0  0  0  0  0  0999 V2000
    1.2480    0.0530    2.1118 S   0  0  0  0  0  2  0  0  0  0  0  0
    2.1863    1.3873    3.4519 Si  0  0  0  0  0  4  0  0  0  0  0  0
    1.3246    1.6833    4.6057 H   0  0  0  0  0  0  0  0  0  0  0  0
    2.3695    2.6862    2.7415 H   0  0  0  0  0  0  0  0  0  0  0  0
    1.5288   -1.9831    2.5737 Si  0  0  0  0  0  4  0  0  0  0  0  0
    1.4210   -2.8014    1.3323 H   0  0  0  0  0  0  0  0  0  0  0  0
    2.9260   -2.1786    3.0437 H   0  0  0  0  0  0  0  0  0  0  0  0
    0.0485   -2.7767    4.0202 Si  0  0  0  0  0  4  0  0  0  0  0  0
   -1.0577   -1.2111    5.0895 Si  0  0  0  0  0  4  0  0  0  0  0  0
    4.1933   -1.1012    5.3034 Si  0  0  0  0  0  4  0  0  0  0  0  0
    4.2122    0.7221    4.0807 Si  0  0  0  0  0  4  0  0  0  0  0  0
    5.0475    0.6118    2.8685 H   0  0  0  0  0  0  0  0  0  0  0  0
    4.7944    1.8281    4.8931 H   0  0  0  0  0  0  0  0  0  0  0  0
   -0.0145   -0.3616    6.8238 Si  0  0  0  0  0  4  0  0  0  0  0  0
    4.8451   -0.7322    7.4111 Si  0  0  0  0  0  4  0  0  0  0  0  0
    0.0772   -1.6890    8.5782 Si  0  0  0  0  0  4  0  0  0  0  0  0
    4.1101   -2.4240    8.7012 Si  0  0  0  0  0  4  0  0  0  0  0  0
   -2.3761   -1.7320    5.5401 H   0  0  0  0  0  0  0  0  0  0  0  0
   -1.3699   -0.1153    4.1430 H   0  0  0  0  0  0  0  0  0  0  0  0
    1.3411    0.0960    6.4626 H   0  0  0  0  0  0  0  0  0  0  0  0
   -0.7517    0.8605    7.2363 H   0  0  0  0  0  0  0  0  0  0  0  0
    3.4336   -1.9180    9.9000 H   0  0  0  0  0  0  0  0  0  0  0  0
    5.3247   -3.1408    9.1840 H   0  0  0  0  0  0  0  0  0  0  0  0
    0.7225   -3.7527    8.0994 Si  0  0  0  0  0  4  0  0  0  0  0  0
   -0.1349   -4.3053    7.0646 H   0  0  0  0  0  0  0  0  0  0  0  0
    0.5456   -4.5740    9.3108 H   0  0  0  0  0  0  0  0  0  0  0  0
    2.8829   -3.8503    7.5455 Si  0  0  0  0  0  4  0  0  0  0  0  0
    3.3615   -5.2461    7.7507 H   0  0  0  0  0  0  0  0  0  0  0  0
    3.0631   -3.5764    6.1061 H   0  0  0  0  0  0  0  0  0  0  0  0
   -1.2399   -1.7440    9.2160 H   0  0  0  0  0  0  0  0  0  0  0  0
    1.0319   -1.1296    9.5472 H   0  0  0  0  0  0  0  0  0  0  0  0
    6.2840   -0.5786    7.4935 H   0  0  0  0  0  0  0  0  0  0  0  0
    4.2057    0.4996    7.9248 H   0  0  0  0  0  0  0  0  0  0  0  0
    2.8431   -1.6757    5.3906 H   0  0  0  0  0  0  0  0  0  0  0  0
    5.1262   -2.0823    4.7227 H   0  0  0  0  0  0  0  0  0  0  0  0
    0.8019   -3.6680    4.9447 H   0  0  0  0  0  0  0  0  0  0  0  0
   -0.9340   -3.6686    3.3432 H   0  0  0  0  0  0  0  0  0  0  0  0
  1  2  1  0
  1  5  1  0
  2  3  1  0
  2  4  1  0
  2 11  1  0
  5  6  1  0
  5  7  1  0
  5  8  1  0
  8  9  1  0
  8 36  1  0
  8 37  1  0
  9 14  1  0
  9 18  1  0
  9 19  1  0
 10 11  1  0
 10 15  1  0
 10 34  1  0
 10 35  1  0
 11 12  1  0
 11 13  1  0
 14 16  1  0
 14 20  1  0
 14 21  1  0
 15 17  1  0
 15 32  1  0
 15 33  1  0
 16 24  1  0
 16 30  1  0
 16 31  1  0
 17 22  1  0
 17 23  1  0
 17 27  1  0
 24 25  1  0
 24 26  1  0
 24 27  1  0
 27 28  1  0
 27 29  1  0
M  CHG  1   1   1
M  RAD  1   1   2
M  END
$$$$

     RDKit          3D

 37 37  0  0  0  0  0  0  0  0999 V2000
    1.2480    0.0530    2.1118 S   0  0  0  0  0  2  0  0  0  0  0  0
    2.7653    1.2788    2.9657 Si  0  0  0  0  0  4  0  0  0  0  0  0
    4.0700    0.8210    2.4633 H   0  0  0  0  0  0  0  0  0  0  0  0
    2.5405    2.6984    2.5796 H   0  0  0  0  0  0  0  0  0  0  0  0
   -0.2402   -0.5000    3.5812 Si  0  0  0  0  0  4  0  0  0  0  0  0
    0.3636   -0.7514    4.8771 H   0  0  0  0  0  0  0  0  0  0  0  0
   -0.8127   -1.7913    3.1082 H   0  0  0  0  0  0  0  0  0  0  0  0
   -1.8722    0.9835    3.6389 Si  0  0  0  0  0  4  0  0  0  0  0  0
   -2.7857    1.2197    5.6293 Si  0  0  0  0  0  4  0  0  0  0  0  0
    3.4282    2.9455    6.1742 Si  0  0  0  0  0  4  0  0  0  0  0  0
    2.6624    1.0951    5.1905 Si  0  0  0  0  0  4  0  0  0  0  0  0
    3.4217   -0.0478    5.6681 H   0  0  0  0  0  0  0  0  0  0  0  0
    1.2300    0.9956    5.5073 H   0  0  0  0  0  0  0  0  0  0  0  0
   -3.0369   -0.6949    6.7104 Si  0  0  0  0  0  4  0  0  0  0  0  0
    2.8997    3.0590    8.2989 Si  0  0  0  0  0  4  0  0  0  0  0  0
   -2.8309   -0.4196    8.9314 Si  0  0  0  0  0  4  0  0  0  0  0  0
    2.3995    1.0771    9.1910 Si  0  0  0  0  0  4  0  0  0  0  0  0
   -4.1382    1.8179    5.4513 H   0  0  0  0  0  0  0  0  0  0  0  0
   -2.0216    2.2166    6.4305 H   0  0  0  0  0  0  0  0  0  0  0  0
   -4.4144   -1.2184    6.4892 H   0  0  0  0  0  0  0  0  0  0  0  0
   -2.1176   -1.7378    6.2394 H   0  0  0  0  0  0  0  0  0  0  0  0
    1.9907    1.3221   10.5913 H   0  0  0  0  0  0  0  0  0  0  0  0
    3.5542    0.1898    9.2205 H   0  0  0  0  0  0  0  0  0  0  0  0
   -0.7023   -0.9028    9.4987 Si  0  0  0  0  0  4  0  0  0  0  0  0
   -0.5653   -2.3760    9.3206 H   0  0  0  0  0  0  0  0  0  0  0  0
   -0.4640   -0.6205   10.9063 H   0  0  0  0  0  0  0  0  0  0  0  0
    0.6563    0.1752    8.1386 Si  0  0  0  0  0  4  0  0  0  0  0  0
   -0.0765    1.2976    7.4991 H   0  0  0  0  0  0  0  0  0  0  0  0
    1.1734   -0.7663    7.1387 H   0  0  0  0  0  0  0  0  0  0  0  0
   -3.0242    1.0045    9.2115 H   0  0  0  0  0  0  0  0  0  0  0  0
   -3.7693   -1.2569    9.6632 H   0  0  0  0  0  0  0  0  0  0  0  0
    1.7763    3.9857    8.5764 H   0  0  0  0  0  0  0  0  0  0  0  0
    4.0599    3.5926    9.0541 H   0  0  0  0  0  0  0  0  0  0  0  0
    2.7923    4.0958    5.4693 H   0  0  0  0  0  0  0  0  0  0  0  0
    4.8828    3.1073    5.9492 H   0  0  0  0  0  0  0  0  0  0  0  0
   -1.3097    2.2985    3.2233 H   0  0  0  0  0  0  0  0  0  0  0  0
   -2.9217    0.6399    2.6629 H   0  0  0  0  0  0  0  0  0  0  0  0
  1  2  1  0
  1  5  1  0
  2  3  1  0
  2  4  1  0
  2 11  1  0
  5  6  1  0
  5  7  1  0
  5  8  1  0
  8  9  1  0
  8 36  1  0
  8 37  1  0
  9 14  1  0
  9 18  1  0
  9 19  1  0
 10 11  1  0
 10 15  1  0
 10 34  1  0
 10 35  1  0
 11 12  1  0
 11 13  1  0
 14 16  1  0
 14 20  1  0
 14 21  1  0
 15 17  1  0
 15 32  1  0
 15 33  1  0
 16 24  1  0
 16 30  1  0
 16 31  1  0
 17 22  1  0
 17 23  1  0
 17 27  1  0
 24 25  1  0
 24 26  1  0
 24 27  1  0
 27 28  1  0
 27 29  1  0
M  CHG  1   1   1
M  RAD  1   1   2
M  END
$$$$
