
     RDKit          3D

 37 37  0  0  0  0  0  0  0  0999 V2000
    0.0100   -0.0052   -5.1000 S   0  0  0  0  0  2  0  0  0  0  0  0
    1.6391   -1.1613   -5.9387 Si  0  0  0  0  0  4  0  0  0  0  0  0
    2.0263   -0.5049   -7.1971 H   0  0  0  0  0  0  0  0  0  0  0  0
    2.7678   -1.2330   -5.0337 H   0  0  0  0  0  0  0  0  0  0  0  0
   -1.5304    0.0985   -6.6215 Si  0  0  0  0  0  4  0  0  0  0  0  0
   -2.8430    0.0714   -5.9145 H   0  0  0  0  0  0  0  0  0  0  0  0
   -1.4114   -1.0720   -7.4687 H   0  0  0  0  0  0  0  0  0  0  0  0
   -1.3399    1.9332   -7.8237 Si  0  0  0  0  0  4  0  0  0  0  0  0
   -0.9741    1.5802   -9.9545 Si  0  0  0  0  0  4  0  0  0  0  0  0
    1.8045   -4.0180   -8.2659 Si  0  0  0  0  0  4  0  0  0  0  0  0
    0.8248   -3.1910   -6.4423 Si  0  0  0  0  0  4  0  0  0  0  0  0
   -0.6222   -3.0824   -6.6429 H   0  0  0  0  0  0  0  0  0  0  0  0
    1.0432   -4.0826   -5.2932 H   0  0  0  0  0  0  0  0  0  0  0  0
   -1.2085   -0.5415  -10.5645 Si  0  0  0  0  0  4  0  0  0  0  0  0
    0.2866   -4.5957   -9.8028 Si  0  0  0  0  0  4  0  0  0  0  0  0
   -3.2001   -1.3575  -10.0812 Si  0  0  0  0  0  4  0  0  0  0  0  0
   -1.7002   -4.8121   -8.8238 Si  0  0  0  0  0  4  0  0  0  0  0  0
    0.4213    1.9735  -10.2796 H   0  0  0  0  0  0  0  0  0  0  0  0
   -1.8367    2.4561  -10.7759 H   0  0  0  0  0  0  0  0  0  0  0  0
   -0.1137   -1.3264  -10.0085 H   0  0  0  0  0  0  0  0  0  0  0  0
   -1.0470   -0.5818  -12.0461 H   0  0  0  0  0  0  0  0  0  0  0  0
   -1.9903   -3.5871   -8.0741 H   0  0  0  0  0  0  0  0  0  0  0  0
   -1.7002   -5.9665   -7.9339 H   0  0  0  0  0  0  0  0  0  0  0  0
   -3.7025   -3.1099  -11.4072 Si  0  0  0  0  0  4  0  0  0  0  0  0
   -5.1504   -3.0646  -11.6856 H   0  0  0  0  0  0  0  0  0  0  0  0
   -2.9967   -3.0431  -12.6718 H   0  0  0  0  0  0  0  0  0  0  0  0
   -3.2480   -5.0318  -10.4059 Si  0  0  0  0  0  4  0  0  0  0  0  0
   -4.4642   -5.5844   -9.7917 H   0  0  0  0  0  0  0  0  0  0  0  0
   -2.7761   -6.0223  -11.4069 H   0  0  0  0  0  0  0  0  0  0  0  0
   -4.2051   -0.2916  -10.2721 H   0  0  0  0  0  0  0  0  0  0  0  0
   -3.3267   -1.8238   -8.7040 H   0  0  0  0  0  0  0  0  0  0  0  0
    0.6380   -5.8985  -10.3926 H   0  0  0  0  0  0  0  0  0  0  0  0
    0.2047   -3.5800  -10.8667 H   0  0  0  0  0  0  0  0  0  0  0  0
    2.5800   -5.2248   -7.9193 H   0  0  0  0  0  0  0  0  0  0  0  0
    2.7257   -3.0474   -8.8526 H   0  0  0  0  0  0  0  0  0  0  0  0
   -2.5700    2.7585   -7.6596 H   0  0  0  0  0  0  0  0  0  0  0  0
   -0.2472    2.7591   -7.2340 H   0  0  0  0  0  0  0  0  0  0  0  0
  1  2  1  0
  1  5  1  0
  2  3  1  0
  2  4  1  0
  2 11  1  0
  5  6  1  0
  5  7  1  0
  5  8  1  0
  8  9  1  0
  8 36  1  0
  8 37  1  0
  9 14  1  0
  9 18  1  0
  9 19  1  0
 10 11  1  0
 10 15  1  0
 10 34  1  0
 10 35  1  0
 11 12  1  0
 11 13  1  0
 14 16  1  0
 14 20  1  0
 14 21  1  0
 15 17  1  0
 15 32  1  0
 15 33  1  0
 16 24  1  0
 16 30  1  0
 16 31  1  0
 17 22  1  0
 17 23  1  0
 17 27  1  0
 24 25  1  0
 24 26  1  0
 24 27  1  0
 27 28  1  0
 27 29  1  0
M  CHG  1   1   1
M  RAD  1   1   2
M  END
$$$$

     RDKit          3D

 37 37  0  0  0  0  0  0  0  0999 V2000
    0.0100   -0.0052   -5.1000 S   0  0  0  0  0  2  0  0  0  0  0  0
    0.8930    0.0260   -7.0577 Si  0  0  0  0  0  4  0  0  0  0  0  0
    0.1015   -0.8382   -7.9518 H   0  0  0  0  0  0  0  0  0  0  0  0
    2.2683   -0.4977   -7.0423 H   0  0  0  0  0  0  0  0  0  0  0  0
   -2.1310   -0.0877   -5.3406 Si  0  0  0  0  0  4  0  0  0  0  0  0
   -2.7328    1.2386   -5.3150 H   0  0  0  0  0  0  0  0  0  0  0  0
   -2.6705   -0.9051   -4.2481 H   0  0  0  0  0  0  0  0  0  0  0  0
   -2.5371   -1.1571   -7.2681 Si  0  0  0  0  0  4  0  0  0  0  0  0
   -1.4243   -3.0831   -7.2442 Si  0  0  0  0  0  4  0  0  0  0  0  0
    2.9216    2.8030   -8.1586 Si  0  0  0  0  0  4  0  0  0  0  0  0
    0.8079    2.0948   -7.9017 Si  0  0  0  0  0  4  0  0  0  0  0  0
    0.0636    2.9491   -6.9757 H   0  0  0  0  0  0  0  0  0  0  0  0
    0.1944    2.1050   -9.2444 H   0  0  0  0  0  0  0  0  0  0  0  0
   -1.2970   -3.9999   -9.2611 Si  0  0  0  0  0  4  0  0  0  0  0  0
    4.0938    1.1026   -9.0163 Si  0  0  0  0  0  4  0  0  0  0  0  0
   -0.2579   -2.6843  -10.7209 Si  0  0  0  0  0  4  0  0  0  0  0  0
    2.8052    0.0487  -10.5399 Si  0  0  0  0  0  4  0  0  0  0  0  0
   -0.0586   -2.8833   -6.6904 H   0  0  0  0  0  0  0  0  0  0  0  0
   -2.1094   -4.0059   -6.3548 H   0  0  0  0  0  0  0  0  0  0  0  0
   -2.6711   -4.3274   -9.6939 H   0  0  0  0  0  0  0  0  0  0  0  0
   -0.5521   -5.2477   -9.1568 H   0  0  0  0  0  0  0  0  0  0  0  0
    3.1486    0.6433  -11.8543 H   0  0  0  0  0  0  0  0  0  0  0  0
    1.3900    0.2683  -10.2755 H   0  0  0  0  0  0  0  0  0  0  0  0
    1.7764   -3.4287  -11.2191 Si  0  0  0  0  0  4  0  0  0  0  0  0
    1.9498   -3.6454  -12.6690 H   0  0  0  0  0  0  0  0  0  0  0  0
    1.9518   -4.7544  -10.5671 H   0  0  0  0  0  0  0  0  0  0  0  0
    3.3772   -2.0957  -10.5092 Si  0  0  0  0  0  4  0  0  0  0  0  0
    3.7689   -2.4541   -9.1346 H   0  0  0  0  0  0  0  0  0  0  0  0
    4.5618   -2.2552  -11.3834 H   0  0  0  0  0  0  0  0  0  0  0  0
   -1.0540   -2.7097  -11.9778 H   0  0  0  0  0  0  0  0  0  0  0  0
   -0.2149   -1.2889  -10.2878 H   0  0  0  0  0  0  0  0  0  0  0  0
    5.3217    1.6182   -9.6477 H   0  0  0  0  0  0  0  0  0  0  0  0
    4.4265    0.1673   -7.9152 H   0  0  0  0  0  0  0  0  0  0  0  0
    3.4334    3.1584   -6.8314 H   0  0  0  0  0  0  0  0  0  0  0  0
    2.9756    3.9633   -9.0744 H   0  0  0  0  0  0  0  0  0  0  0  0
   -3.9886   -1.4201   -7.3536 H   0  0  0  0  0  0  0  0  0  0  0  0
   -2.1541   -0.2991   -8.3875 H   0  0  0  0  0  0  0  0  0  0  0  0
  1  2  1  0
  1  5  1  0
  2  3  1  0
  2  4  1  0
  2 11  1  0
  5  6  1  0
  5  7  1  0
  5  8  1  0
  8  9  1  0
  8 36  1  0
  8 37  1  0
  9 14  1  0
  9 18  1  0
  9 19  1  0
 10 11  1  0
 10 15  1  0
 10 34  1  0
 10 35  1  0
 11 12  1  0
 11 13  1  0
 14 16  1  0
 14 20  1  0
 14 21  1  0
 15 17  1  0
 15 32  1  0
 15 33  1  0
 16 24  1  0
 16 30  1  0
 16 31  1  0
 17 22  1  0
 17 23  1  0
 17 27  1  0
 24 25  1  0
 24 26  1  0
 24 27  1  0
 27 28  1  0
 27 29  1  0
M  CHG  1   1   1
M  RAD  1   1   2
M  END
$$$$

     RDKit          3D

 37 37  0  0  0  0  0  0  0  0999 V2000
    0.0100   -0.0052   -5.1000 S   0  0  0  0  0  2  0  0  0  0  0  0
   -0.1862    2.0525   -5.5503 Si  0  0  0  0  0  4  0  0  0  0  0  0
    1.1128    2.7635   -5.5139 H   0  0  0  0  0  0  0  0  0  0  0  0
   -1.0014    2.6730   -4.4650 H   0  0  0  0  0  0  0  0  0  0  0  0
   -0.3015   -1.2847   -6.7476 Si  0  0  0  0  0  4  0  0  0  0  0  0
   -0.3966   -0.5305   -7.9773 H   0  0  0  0  0  0  0  0  0  0  0  0
    0.8544   -2.2117   -6.8679 H   0  0  0  0  0  0  0  0  0  0  0  0
   -2.1150   -2.5857   -6.4826 Si  0  0  0  0  0  4  0  0  0  0  0  0
   -3.9713   -1.3581   -6.3961 Si  0  0  0  0  0  4  0  0  0  0  0  0
    0.1908    2.2466   -9.2158 Si  0  0  0  0  0  4  0  0  0  0  0  0
   -1.1648    2.4700   -7.4710 Si  0  0  0  0  0  4  0  0  0  0  0  0
   -2.3452    1.6471   -7.7100 H   0  0  0  0  0  0  0  0  0  0  0  0
   -1.6343    3.8860   -7.4594 H   0  0  0  0  0  0  0  0  0  0  0  0
   -5.4677   -2.0150   -7.9111 Si  0  0  0  0  0  4  0  0  0  0  0  0
   -1.0480    2.3985  -11.0812 Si  0  0  0  0  0  4  0  0  0  0  0  0
   -4.5426   -2.4387   -9.8763 Si  0  0  0  0  0  4  0  0  0  0  0  0
   -0.6370    0.6661  -12.4444 Si  0  0  0  0  0  4  0  0  0  0  0  0
   -4.5574   -1.5586   -5.0387 H   0  0  0  0  0  0  0  0  0  0  0  0
   -3.7083    0.0661   -6.5252 H   0  0  0  0  0  0  0  0  0  0  0  0
   -6.1065   -3.2388   -7.4005 H   0  0  0  0  0  0  0  0  0  0  0  0
   -6.5010   -0.9872   -8.0297 H   0  0  0  0  0  0  0  0  0  0  0  0
    0.5290   -0.0864  -11.9644 H   0  0  0  0  0  0  0  0  0  0  0  0
   -0.4640    1.1092  -13.8360 H   0  0  0  0  0  0  0  0  0  0  0  0
   -2.6949   -1.2838  -10.2222 Si  0  0  0  0  0  4  0  0  0  0  0  0
   -2.6571   -0.0330   -9.4111 H   0  0  0  0  0  0  0  0  0  0  0  0
   -1.5246   -2.0786   -9.8215 H   0  0  0  0  0  0  0  0  0  0  0  0
   -2.4291   -0.6954  -12.3460 Si  0  0  0  0  0  4  0  0  0  0  0  0
   -2.2648   -1.8374  -13.2343 H   0  0  0  0  0  0  0  0  0  0  0  0
   -3.6052    0.1295  -12.7425 H   0  0  0  0  0  0  0  0  0  0  0  0
   -5.5093   -2.1057  -10.9406 H   0  0  0  0  0  0  0  0  0  0  0  0
   -4.2357   -3.8793   -9.9470 H   0  0  0  0  0  0  0  0  0  0  0  0
   -0.7213    3.6226  -11.8361 H   0  0  0  0  0  0  0  0  0  0  0  0
   -2.4837    2.4749  -10.7609 H   0  0  0  0  0  0  0  0  0  0  0  0
    1.1408    3.3822   -9.2252 H   0  0  0  0  0  0  0  0  0  0  0  0
    0.9717    1.0265   -9.1869 H   0  0  0  0  0  0  0  0  0  0  0  0
   -1.9519   -3.4269   -5.2933 H   0  0  0  0  0  0  0  0  0  0  0  0
   -2.1776   -3.4773   -7.6438 H   0  0  0  0  0  0  0  0  0  0  0  0
  1  2  1  0
  1  5  1  0
  2  3  1  0
  2  4  1  0
  2 11  1  0
  5  6  1  0
  5  7  1  0
  5  8  1  0
  8  9  1  0
  8 36  1  0
  8 37  1  0
  9 14  1  0
  9 18  1  0
  9 19  1  0
 10 11  1  0
 10 15  1  0
 10 34  1  0
 10 35  1  0
 11 12  1  0
 11 13  1  0
 14 16  1  0
 14 20  1  0
 14 21  1  0
 15 17  1  0
 15 32  1  0
 15 33  1  0
 16 24  1  0
 16 30  1  0
 16 31  1  0
 17 22  1  0
 17 23  1  0
 17 27  1  0
 24 25  1  0
 24 26  1  0
 24 27  1  0
 27 28  1  0
 27 29  1  0
M  CHG  1   1   1
M  RAD  1   1   2
M  END
$$$$

     RDKit          3D

 37 37  0  0  0  0  0  0  0  0999 V2000
    0.0100   -0.0052   -5.1000 S   0  0  0  0  0  2  0  0  0  0  0  0
    1.1869   -0.7370   -6.6835 Si  0  0  0  0  0  4  0  0  0  0  0  0
    1.5798    0.3984   -7.5573 H   0  0  0  0  0  0  0  0  0  0  0  0
    2.4683   -1.2473   -6.1152 H   0  0  0  0  0  0  0  0  0  0  0  0
   -2.0403    0.1721   -5.5102 Si  0  0  0  0  0  4  0  0  0  0  0  0
   -2.7545   -0.9981   -4.9778 H   0  0  0  0  0  0  0  0  0  0  0  0
   -2.5784    1.3475   -4.7671 H   0  0  0  0  0  0  0  0  0  0  0  0
   -2.5216    0.4555   -7.6488 Si  0  0  0  0  0  4  0  0  0  0  0  0
   -1.3992    2.1758   -8.4892 Si  0  0  0  0  0  4  0  0  0  0  0  0
    0.3409   -1.8547  -10.0089 Si  0  0  0  0  0  4  0  0  0  0  0  0
    0.2520   -2.3829   -7.8185 Si  0  0  0  0  0  4  0  0  0  0  0  0
   -1.1139   -2.6778   -7.4108 H   0  0  0  0  0  0  0  0  0  0  0  0
    1.0201   -3.6527   -7.6830 H   0  0  0  0  0  0  0  0  0  0  0  0
   -2.2549    2.8836  -10.4128 Si  0  0  0  0  0  4  0  0  0  0  0  0
    2.3901   -1.1288  -10.4612 Si  0  0  0  0  0  4  0  0  0  0  0  0
   -0.8280    2.3555  -12.0713 Si  0  0  0  0  0  4  0  0  0  0  0  0
    2.4070    0.2289  -12.2289 Si  0  0  0  0  0  4  0  0  0  0  0  0
   -0.0041    1.8203   -8.6659 H   0  0  0  0  0  0  0  0  0  0  0  0
   -1.4663    3.2795   -7.5212 H   0  0  0  0  0  0  0  0  0  0  0  0
   -3.5361    2.2559  -10.7288 H   0  0  0  0  0  0  0  0  0  0  0  0
   -2.3976    4.3605  -10.4108 H   0  0  0  0  0  0  0  0  0  0  0  0
    3.4769   -0.1937  -13.1539 H   0  0  0  0  0  0  0  0  0  0  0  0
    1.1490    0.1652  -12.9795 H   0  0  0  0  0  0  0  0  0  0  0  0
    1.0155    3.6043  -11.9592 Si  0  0  0  0  0  4  0  0  0  0  0  0
    1.1747    4.4262  -13.1772 H   0  0  0  0  0  0  0  0  0  0  0  0
    0.9210    4.5380  -10.8168 H   0  0  0  0  0  0  0  0  0  0  0  0
    2.8346    2.3406  -11.6329 Si  0  0  0  0  0  4  0  0  0  0  0  0
    3.9351    2.9156  -12.4144 H   0  0  0  0  0  0  0  0  0  0  0  0
    3.2020    2.3523  -10.2143 H   0  0  0  0  0  0  0  0  0  0  0  0
   -1.4763    2.4495  -13.3734 H   0  0  0  0  0  0  0  0  0  0  0  0
   -0.4248    0.9483  -11.8482 H   0  0  0  0  0  0  0  0  0  0  0  0
    2.9305   -0.4051   -9.3097 H   0  0  0  0  0  0  0  0  0  0  0  0
    3.2952   -2.2733  -10.7079 H   0  0  0  0  0  0  0  0  0  0  0  0
    0.0213   -3.0429  -10.8220 H   0  0  0  0  0  0  0  0  0  0  0  0
   -0.6587   -0.8124  -10.2341 H   0  0  0  0  0  0  0  0  0  0  0  0
   -3.9706    0.7935   -7.7438 H   0  0  0  0  0  0  0  0  0  0  0  0
   -2.3347   -0.7756   -8.4066 H   0  0  0  0  0  0  0  0  0  0  0  0
  1  2  1  0
  1  5  1  0
  2  3  1  0
  2  4  1  0
  2 11  1  0
  5  6  1  0
  5  7  1  0
  5  8  1  0
  8  9  1  0
  8 36  1  0
  8 37  1  0
  9 14  1  0
  9 18  1  0
  9 19  1  0
 10 11  1  0
 10 15  1  0
 10 34  1  0
 10 35  1  0
 11 12  1  0
 11 13  1  0
 14 16  1  0
 14 20  1  0
 14 21  1  0
 15 17  1  0
 15 32  1  0
 15 33  1  0
 16 24  1  0
 16 30  1  0
 16 31  1  0
 17 22  1  0
 17 23  1  0
 17 27  1  0
 24 25  1  0
 24 26  1  0
 24 27  1  0
 27 28  1  0
 27 29  1  0
M  CHG  1   1   1
M  RAD  1   1   2
M  END
$$$$

     RDKit          3D

 37 37  0  0  0  0  0  0  0  0999 V2000
    0.0100   -0.0052   -5.1000 S   0  0  0  0  0  2  0  0  0  0  0  0
   -1.4230    0.1911   -6.6661 Si  0  0  0  0  0  4  0  0  0  0  0  0
   -2.5207   -0.7409   -6.4314 H   0  0  0  0  0  0  0  0  0  0  0  0
   -0.8328   -0.1752   -7.9842 H   0  0  0  0  0  0  0  0  0  0  0  0
    2.0181   -0.0828   -5.8643 Si  0  0  0  0  0  4  0  0  0  0  0  0
    2.6854   -1.3274   -5.5191 H   0  0  0  0  0  0  0  0  0  0  0  0
    2.7352    1.0794   -5.3034 H   0  0  0  0  0  0  0  0  0  0  0  0
    1.9048    0.2226   -8.0761 Si  0  0  0  0  0  4  0  0  0  0  0  0
    3.8179    1.0042   -8.8450 Si  0  0  0  0  0  4  0  0  0  0  0  0
   -0.7712    3.7814   -6.1398 Si  0  0  0  0  0  4  0  0  0  0  0  0
   -2.2303    2.2595   -6.8123 Si  0  0  0  0  0  4  0  0  0  0  0  0
   -3.4926    2.3254   -6.0572 H   0  0  0  0  0  0  0  0  0  0  0  0
   -2.5919    2.5122   -8.2333 H   0  0  0  0  0  0  0  0  0  0  0  0
    3.9365    1.0656  -11.0240 Si  0  0  0  0  0  4  0  0  0  0  0  0
   -0.8106    5.6179   -7.3718 Si  0  0  0  0  0  4  0  0  0  0  0  0
    2.0318    1.0469  -12.0892 Si  0  0  0  0  0  4  0  0  0  0  0  0
   -0.7673    5.1739   -9.5492 Si  0  0  0  0  0  4  0  0  0  0  0  0
    4.0529    2.3556   -8.2750 H   0  0  0  0  0  0  0  0  0  0  0  0
    4.9132    0.1558   -8.2945 H   0  0  0  0  0  0  0  0  0  0  0  0
    4.7120    2.2718  -11.4328 H   0  0  0  0  0  0  0  0  0  0  0  0
    4.7538   -0.0890  -11.4969 H   0  0  0  0  0  0  0  0  0  0  0  0
   -0.7455    6.4626  -10.2682 H   0  0  0  0  0  0  0  0  0  0  0  0
   -1.9973    4.4830   -9.9542 H   0  0  0  0  0  0  0  0  0  0  0  0
    0.3963    2.1668  -11.1700 Si  0  0  0  0  0  4  0  0  0  0  0  0
   -0.4460    1.3194  -10.2855 H   0  0  0  0  0  0  0  0  0  0  0  0
   -0.5304    2.6097  -12.2542 H   0  0  0  0  0  0  0  0  0  0  0  0
    1.0532    4.0119  -10.1151 Si  0  0  0  0  0  4  0  0  0  0  0  0
    1.7859    3.7130   -8.8747 H   0  0  0  0  0  0  0  0  0  0  0  0
    1.8968    4.7808  -11.0323 H   0  0  0  0  0  0  0  0  0  0  0  0
    1.5983   -0.3675  -12.2815 H   0  0  0  0  0  0  0  0  0  0  0  0
    2.2562    1.5638  -13.4709 H   0  0  0  0  0  0  0  0  0  0  0  0
   -1.9891    6.4295   -7.0920 H   0  0  0  0  0  0  0  0  0  0  0  0
    0.3978    6.4147   -7.0360 H   0  0  0  0  0  0  0  0  0  0  0  0
    0.5971    3.2170   -6.1748 H   0  0  0  0  0  0  0  0  0  0  0  0
   -1.1216    4.1691   -4.7436 H   0  0  0  0  0  0  0  0  0  0  0  0
    0.8692    1.2764   -8.2786 H   0  0  0  0  0  0  0  0  0  0  0  0
    1.5226   -1.0216   -8.7394 H   0  0  0  0  0  0  0  0  0  0  0  0
  1  2  1  0
  1  5  1  0
  2  3  1  0
  2  4  1  0
  2 11  1  0
  5  6  1  0
  5  7  1  0
  5  8  1  0
  8  9  1  0
  8 36  1  0
  8 37  1  0
  9 14  1  0
  9 18  1  0
  9 19  1  0
 10 11  1  0
 10 15  1  0
 10 34  1  0
 10 35  1  0
 11 12  1  0
 11 13  1  0
 14 16  1  0
 14 20  1  0
 14 21  1  0
 15 17  1  0
 15 32  1  0
 15 33  1  0
 16 24  1  0
 16 30  1  0
 16 31  1  0
 17 22  1  0
 17 23  1  0
 17 27  1  0
 24 25  1  0
 24 26  1  0
 24 27  1  0
 27 28  1  0
 27 29  1  0
M  CHG  1   1   1
M  RAD  1   1   2
M  END
$$$$

     RDKit          3D

 37 37  0  0  0  0  0  0  0  0999 V2000
    0.0100   -0.0052   -5.1000 S   0  0  0  0  0  2  0  0  0  0  0  0
   -0.0545    0.8703   -7.0603 Si  0  0  0  0  0  4  0  0  0  0  0  0
    0.8413    0.1111   -7.9514 H   0  0  0  0  0  0  0  0  0  0  0  0
    0.4142    2.2653   -7.0485 H   0  0  0  0  0  0  0  0  0  0  0  0
    0.1777   -2.1419   -5.3343 Si  0  0  0  0  0  4  0  0  0  0  0  0
   -1.1237   -2.7958   -5.3080 H   0  0  0  0  0  0  0  0  0  0  0  0
    1.0149   -2.6454   -4.2396 H   0  0  0  0  0  0  0  0  0  0  0  0
    1.2642   -2.5107   -7.2598 Si  0  0  0  0  0  4  0  0  0  0  0  0
    3.1444   -1.3222   -7.2376 Si  0  0  0  0  0  4  0  0  0  0  0  0
   -2.9089    2.7837   -8.1693 Si  0  0  0  0  0  4  0  0  0  0  0  0
   -2.1175    0.7006   -7.9056 Si  0  0  0  0  0  4  0  0  0  0  0  0
   -2.9424   -0.0744   -6.9782 H   0  0  0  0  0  0  0  0  0  0  0  0
   -2.1021    0.0833   -9.2466 H   0  0  0  0  0  0  0  0  0  0  0  0
    4.0573   -1.1644   -9.2541 Si  0  0  0  0  0  4  0  0  0  0  0  0
   -1.2556    4.0200   -9.0290 Si  0  0  0  0  0  4  0  0  0  0  0  0
    2.7027   -0.1826  -10.7180 Si  0  0  0  0  0  4  0  0  0  0  0  0
   -0.1500    2.7700  -10.5481 Si  0  0  0  0  0  4  0  0  0  0  0  0
    2.8900    0.0361   -6.6880 H   0  0  0  0  0  0  0  0  0  0  0  0
    4.0928   -1.9675   -6.3454 H   0  0  0  0  0  0  0  0  0  0  0  0
    4.4395   -2.5257   -9.6826 H   0  0  0  0  0  0  0  0  0  0  0  0
    5.2743   -0.3703   -9.1509 H   0  0  0  0  0  0  0  0  0  0  0  0
   -0.7565    3.0857  -11.8639 H   0  0  0  0  0  0  0  0  0  0  0  0
   -0.3134    1.3480  -10.2797 H   0  0  0  0  0  0  0  0  0  0  0  0
    3.3662    1.8782  -11.2215 Si  0  0  0  0  0  4  0  0  0  0  0  0
    3.5772    2.0559  -12.6717 H   0  0  0  0  0  0  0  0  0  0  0  0
    4.6832    2.1080  -10.5690 H   0  0  0  0  0  0  0  0  0  0  0  0
    1.9700    3.4268  -10.5173 Si  0  0  0  0  0  4  0  0  0  0  0  0
    2.3113    3.8364   -9.1436 H   0  0  0  0  0  0  0  0  0  0  0  0
    2.0830    4.6143  -11.3948 H   0  0  0  0  0  0  0  0  0  0  0  0
    2.7609   -0.9807  -11.9725 H   0  0  0  0  0  0  0  0  0  0  0  0
    1.3063   -0.1939  -10.2861 H   0  0  0  0  0  0  0  0  0  0  0  0
   -1.8190    5.2247   -9.6644 H   0  0  0  0  0  0  0  0  0  0  0  0
   -0.3353    4.3929   -7.9282 H   0  0  0  0  0  0  0  0  0  0  0  0
   -3.2856    3.2848   -6.8439 H   0  0  0  0  0  0  0  0  0  0  0  0
   -4.0696    2.7889   -9.0862 H   0  0  0  0  0  0  0  0  0  0  0  0
    1.5846   -3.9509   -7.3408 H   0  0  0  0  0  0  0  0  0  0  0  0
    0.3926   -2.1653   -8.3810 H   0  0  0  0  0  0  0  0  0  0  0  0
  1  2  1  0
  1  5  1  0
  2  3  1  0
  2  4  1  0
  2 11  1  0
  5  6  1  0
  5  7  1  0
  5  8  1  0
  8  9  1  0
  8 36  1  0
  8 37  1  0
  9 14  1  0
  9 18  1  0
  9 19  1  0
 10 11  1  0
 10 15  1  0
 10 34  1  0
 10 35  1  0
 11 12  1  0
 11 13  1  0
 14 16  1  0
 14 20  1  0
 14 21  1  0
 15 17  1  0
 15 32  1  0
 15 33  1  0
 16 24  1  0
 16 30  1  0
 16 31  1  0
 17 22  1  0
 17 23  1  0
 17 27  1  0
 24 25  1  0
 24 26  1  0
 24 27  1  0
 27 28  1  0
 27 29  1  0
M  CHG  1   1   1
M  RAD  1   1   2
M  END
$$$$

     RDKit          3D

 37 37  0  0  0  0  0  0  0  0999 V2000
    0.0100   -0.0052   -5.1000 S   0  0  0  0  0  2  0  0  0  0  0  0
   -2.0378   -0.2843   -5.5514 Si  0  0  0  0  0  4  0  0  0  0  0  0
   -2.8000    0.9855   -5.5193 H   0  0  0  0  0  0  0  0  0  0  0  0
   -2.6266   -1.1204   -4.4642 H   0  0  0  0  0  0  0  0  0  0  0  0
    1.3023   -0.2703   -6.7456 Si  0  0  0  0  0  4  0  0  0  0  0  0
    0.5536   -0.3989   -7.9757 H   0  0  0  0  0  0  0  0  0  0  0  0
    2.1828    0.9212   -6.8686 H   0  0  0  0  0  0  0  0  0  0  0  0
    2.6742   -2.0300   -6.4743 Si  0  0  0  0  0  4  0  0  0  0  0  0
    1.5212   -3.9333   -6.3834 Si  0  0  0  0  0  4  0  0  0  0  0  0
   -2.2435    0.0741   -9.2181 Si  0  0  0  0  0  4  0  0  0  0  0  0
   -2.4144   -1.2842   -7.4695 Si  0  0  0  0  0  4  0  0  0  0  0  0
   -1.5451   -2.4317   -7.7044 H   0  0  0  0  0  0  0  0  0  0  0  0
   -3.8107   -1.8095   -7.4577 H   0  0  0  0  0  0  0  0  0  0  0  0
    2.2383   -5.4068   -7.8935 Si  0  0  0  0  0  4  0  0  0  0  0  0
   -2.3443   -1.1751  -11.0800 Si  0  0  0  0  0  4  0  0  0  0  0  0
    2.6267   -4.4712   -9.8611 Si  0  0  0  0  0  4  0  0  0  0  0  0
   -0.6284   -0.6995  -12.4430 Si  0  0  0  0  0  4  0  0  0  0  0  0
    1.7435   -4.5071   -5.0241 H   0  0  0  0  0  0  0  0  0  0  0  0
    0.0878   -3.7275   -6.5144 H   0  0  0  0  0  0  0  0  0  0  0  0
    3.4861   -5.9950   -7.3800 H   0  0  0  0  0  0  0  0  0  0  0  0
    1.2526   -6.4804   -8.0099 H   0  0  0  0  0  0  0  0  0  0  0  0
    0.0768    0.4969  -11.9658 H   0  0  0  0  0  0  0  0  0  0  0  0
   -1.0768   -0.5482  -13.8354 H   0  0  0  0  0  0  0  0  0  0  0  0
    1.3997   -2.6719  -10.2133 Si  0  0  0  0  0  4  0  0  0  0  0  0
    0.1476   -2.6815   -9.4033 H   0  0  0  0  0  0  0  0  0  0  0  0
    2.1470   -1.4698   -9.8154 H   0  0  0  0  0  0  0  0  0  0  0  0
    0.8032   -2.4358  -12.3383 Si  0  0  0  0  0  4  0  0  0  0  0  0
    1.9385   -2.2289  -13.2262 H   0  0  0  0  0  0  0  0  0  0  0  0
    0.0260   -3.6449  -12.7320 H   0  0  0  0  0  0  0  0  0  0  0  0
    2.3334   -5.4535  -10.9228 H   0  0  0  0  0  0  0  0  0  0  0  0
    4.0541   -4.1076   -9.9315 H   0  0  0  0  0  0  0  0  0  0  0  0
   -3.5798   -0.8995  -11.8368 H   0  0  0  0  0  0  0  0  0  0  0  0
   -2.3639   -2.6117  -10.7556 H   0  0  0  0  0  0  0  0  0  0  0  0
   -3.4159    0.9782   -9.2311 H   0  0  0  0  0  0  0  0  0  0  0  0
   -1.0554    0.9030   -9.1905 H   0  0  0  0  0  0  0  0  0  0  0  0
    3.5071   -1.8301   -5.2849 H   0  0  0  0  0  0  0  0  0  0  0  0
    3.5685   -2.0604   -7.6347 H   0  0  0  0  0  0  0  0  0  0  0  0
  1  2  1  0
  1  5  1  0
  2  3  1  0
  2  4  1  0
  2 11  1  0
  5  6  1  0
  5  7  1  0
  5  8  1  0
  8  9  1  0
  8 36  1  0
  8 37  1  0
  9 14  1  0
  9 18  1  0
  9 19  1  0
 10 11  1  0
 10 15  1  0
 10 34  1  0
 10 35  1  0
 11 12  1  0
 11 13  1  0
 14 16  1  0
 14 20  1  0
 14 21  1  0
 15 17  1  0
 15 32  1  0
 15 33  1  0
 16 24  1  0
 16 30  1  0
 16 31  1  0
 17 22  1  0
 17 23  1  0
 17 27  1  0
 24 25  1  0
 24 26  1  0
 24 27  1  0
 27 28  1  0
 27 29  1  0
M  CHG  1   1   1
M  RAD  1   1   2
M  END
$$$$

     RDKit          3D

 37 37  0  0  0  0  0  0  0  0999 V2000
    0.0100   -0.0052   -5.1000 S   0  0  0  0  0  2  0  0  0  0  0  0
    0.8921   -0.0598   -7.0577 Si  0  0  0  0  0  4  0  0  0  0  0  0
    0.0203   -0.8427   -7.9519 H   0  0  0  0  0  0  0  0  0  0  0  0
    2.2099   -0.7148   -7.0422 H   0  0  0  0  0  0  0  0  0  0  0  0
   -2.1289    0.1210   -5.3408 Si  0  0  0  0  0  4  0  0  0  0  0  0
   -2.5987    1.4996   -5.3150 H   0  0  0  0  0  0  0  0  0  0  0  0
   -2.7455   -0.6402   -4.2485 H   0  0  0  0  0  0  0  0  0  0  0  0
   -2.6368   -0.9035   -7.2686 Si  0  0  0  0  0  4  0  0  0  0  0  0
   -1.7168   -2.9285   -7.2449 Si  0  0  0  0  0  4  0  0  0  0  0  0
    3.1813    2.5069   -8.1578 Si  0  0  0  0  0  4  0  0  0  0  0  0
    1.0088    2.0077   -7.9012 Si  0  0  0  0  0  4  0  0  0  0  0  0
    0.3510    2.9302   -6.9752 H   0  0  0  0  0  0  0  0  0  0  0  0
    0.3993    2.0778   -9.2440 H   0  0  0  0  0  0  0  0  0  0  0  0
   -1.6790   -3.8531   -9.2619 Si  0  0  0  0  0  4  0  0  0  0  0  0
    4.1826    0.7006   -9.0157 Si  0  0  0  0  0  4  0  0  0  0  0  0
   -0.5167   -2.6445  -10.7214 Si  0  0  0  0  0  4  0  0  0  0  0  0
    2.7978   -0.2226  -10.5396 Si  0  0  0  0  0  4  0  0  0  0  0  0
   -0.3381   -2.8627   -6.6910 H   0  0  0  0  0  0  0  0  0  0  0  0
   -2.4885   -3.7804   -6.3557 H   0  0  0  0  0  0  0  0  0  0  0  0
   -3.0785   -4.0453   -9.6949 H   0  0  0  0  0  0  0  0  0  0  0  0
   -1.0591   -5.1674   -9.1578 H   0  0  0  0  0  0  0  0  0  0  0  0
    3.1975    0.3360  -11.8539 H   0  0  0  0  0  0  0  0  0  0  0  0
    1.4107    0.1336  -10.2753 H   0  0  0  0  0  0  0  0  0  0  0  0
    1.4355   -3.5833  -11.2196 Si  0  0  0  0  0  4  0  0  0  0  0  0
    1.5872   -3.8156  -12.6694 H   0  0  0  0  0  0  0  0  0  0  0  0
    1.4811   -4.9198  -10.5678 H   0  0  0  0  0  0  0  0  0  0  0  0
    3.1584   -2.4125  -10.5093 Si  0  0  0  0  0  4  0  0  0  0  0  0
    3.5132   -2.8076   -9.1348 H   0  0  0  0  0  0  0  0  0  0  0  0
    4.3219   -2.6863  -11.3834 H   0  0  0  0  0  0  0  0  0  0  0  0
   -1.3114   -2.5922  -11.9784 H   0  0  0  0  0  0  0  0  0  0  0  0
   -0.3382   -1.2600  -10.2880 H   0  0  0  0  0  0  0  0  0  0  0  0
    5.4549    1.0944   -9.6469 H   0  0  0  0  0  0  0  0  0  0  0  0
    4.4227   -0.2627   -7.9148 H   0  0  0  0  0  0  0  0  0  0  0  0
    3.7252    2.8106   -6.8305 H   0  0  0  0  0  0  0  0  0  0  0  0
    3.3481    3.6566   -9.0734 H   0  0  0  0  0  0  0  0  0  0  0  0
   -4.1070   -1.0239   -7.3542 H   0  0  0  0  0  0  0  0  0  0  0  0
   -2.1720   -0.0866   -8.3878 H   0  0  0  0  0  0  0  0  0  0  0  0
  1  2  1  0
  1  5  1  0
  2  3  1  0
  2  4  1  0
  2 11  1  0
  5  6  1  0
  5  7  1  0
  5  8  1  0
  8  9  1  0
  8 36  1  0
  8 37  1  0
  9 14  1  0
  9 18  1  0
  9 19  1  0
 10 11  1  0
 10 15  1  0
 10 34  1  0
 10 35  1  0
 11 12  1  0
 11 13  1  0
 14 16  1  0
 14 20  1  0
 14 21  1  0
 15 17  1  0
 15 32  1  0
 15 33  1  0
 16 24  1  0
 16 30  1  0
 16 31  1  0
 17 22  1  0
 17 23  1  0
 17 27  1  0
 24 25  1  0
 24 26  1  0
 24 27  1  0
 27 28  1  0
 27 29  1  0
M  CHG  1   1   1
M  RAD  1   1   2
M  END
$$$$

     RDKit          3D

 37 37  0  0  0  0  0  0  0  0999 V2000
    0.0100   -0.0052   -5.1000 S   0  0  0  0  0  2  0  0  0  0  0  0
   -1.4366   -0.0134   -6.6659 Si  0  0  0  0  0  4  0  0  0  0  0  0
   -2.3919   -1.0908   -6.4309 H   0  0  0  0  0  0  0  0  0  0  0  0
   -0.8007   -0.2931   -7.9840 H   0  0  0  0  0  0  0  0  0  0  0  0
    2.0089    0.2010   -5.8646 Si  0  0  0  0  0  4  0  0  0  0  0  0
    2.8451   -0.9370   -5.5192 H   0  0  0  0  0  0  0  0  0  0  0  0
    2.5550    1.4528   -5.3042 H   0  0  0  0  0  0  0  0  0  0  0  0
    1.8534    0.4867   -8.0765 Si  0  0  0  0  0  4  0  0  0  0  0  0
    3.6370    1.5301   -8.8459 Si  0  0  0  0  0  4  0  0  0  0  0  0
   -1.2976    3.6331   -6.1406 Si  0  0  0  0  0  4  0  0  0  0  0  0
   -2.5275    1.9205   -6.8125 Si  0  0  0  0  0  4  0  0  0  0  0  0
   -3.7864    1.8079   -6.0573 H   0  0  0  0  0  0  0  0  0  0  0  0
   -2.9213    2.1192   -8.2335 H   0  0  0  0  0  0  0  0  0  0  0  0
    3.7456    1.6071  -11.0249 Si  0  0  0  0  0  4  0  0  0  0  0  0
   -1.5957    5.4454   -7.3731 Si  0  0  0  0  0  4  0  0  0  0  0  0
    1.8624    1.3197  -12.0898 Si  0  0  0  0  0  4  0  0  0  0  0  0
   -1.4905    5.0113   -9.5504 Si  0  0  0  0  0  4  0  0  0  0  0  0
    3.6791    2.9013   -8.2763 H   0  0  0  0  0  0  0  0  0  0  0  0
    4.8411    0.8449   -8.2953 H   0  0  0  0  0  0  0  0  0  0  0  0
    4.3431    2.9105  -11.4342 H   0  0  0  0  0  0  0  0  0  0  0  0
    4.7174    0.5791  -11.4976 H   0  0  0  0  0  0  0  0  0  0  0  0
   -1.6508    6.2900  -10.2697 H   0  0  0  0  0  0  0  0  0  0  0  0
   -2.6108    4.1538   -9.9550 H   0  0  0  0  0  0  0  0  0  0  0  0
    0.0854    2.1979  -11.1707 Si  0  0  0  0  0  4  0  0  0  0  0  0
   -0.6289    1.2405  -10.2858 H   0  0  0  0  0  0  0  0  0  0  0  0
   -0.8947    2.5054  -12.2548 H   0  0  0  0  0  0  0  0  0  0  0  0
    0.4756    4.1175  -10.1163 Si  0  0  0  0  0  4  0  0  0  0  0  0
    1.2433    3.9253   -8.8759 H   0  0  0  0  0  0  0  0  0  0  0  0
    1.2022    4.9974  -11.0338 H   0  0  0  0  0  0  0  0  0  0  0  0
    1.6326   -0.1418  -12.2817 H   0  0  0  0  0  0  0  0  0  0  0  0
    2.0114    1.8626  -13.4717 H   0  0  0  0  0  0  0  0  0  0  0  0
   -2.8769    6.0828   -7.0933 H   0  0  0  0  0  0  0  0  0  0  0  0
   -0.5118    6.4047   -7.0377 H   0  0  0  0  0  0  0  0  0  0  0  0
    0.1367    3.2674   -6.1757 H   0  0  0  0  0  0  0  0  0  0  0  0
   -1.6990    3.9679   -4.7445 H   0  0  0  0  0  0  0  0  0  0  0  0
    0.6795    1.3839   -8.2790 H   0  0  0  0  0  0  0  0  0  0  0  0
    1.6504   -0.7991   -8.7394 H   0  0  0  0  0  0  0  0  0  0  0  0
  1  2  1  0
  1  5  1  0
  2  3  1  0
  2  4  1  0
  2 11  1  0
  5  6  1  0
  5  7  1  0
  5  8  1  0
  8  9  1  0
  8 36  1  0
  8 37  1  0
  9 14  1  0
  9 18  1  0
  9 19  1  0
 10 11  1  0
 10 15  1  0
 10 34  1  0
 10 35  1  0
 11 12  1  0
 11 13  1  0
 14 16  1  0
 14 20  1  0
 14 21  1  0
 15 17  1  0
 15 32  1  0
 15 33  1  0
 16 24  1  0
 16 30  1  0
 16 31  1  0
 17 22  1  0
 17 23  1  0
 17 27  1  0
 24 25  1  0
 24 26  1  0
 24 27  1  0
 27 28  1  0
 27 29  1  0
M  CHG  1   1   1
M  RAD  1   1   2
M  END
$$$$
