
     RDKit          3D

 37 37  0  0  0  0  0  0  0  0999 V2000
   -1.2799   -0.4521   -2.4429 S   0  0  0  0  0  2  0  0  0  0  0  0
   -1.5986    1.4008   -3.5084 Si  0  0  0  0  0  4  0  0  0  0  0  0
   -2.9408    1.8886   -3.1005 H   0  0  0  0  0  0  0  0  0  0  0  0
   -0.6205    2.4071   -3.1535 H   0  0  0  0  0  0  0  0  0  0  0  0
   -2.2736   -2.0002   -3.5825 Si  0  0  0  0  0  4  0  0  0  0  0  0
   -2.9904   -2.8763   -2.6533 H   0  0  0  0  0  0  0  0  0  0  0  0
   -3.2679   -1.4245   -4.4966 H   0  0  0  0  0  0  0  0  0  0  0  0
   -0.8114   -3.2267   -4.7166 Si  0  0  0  0  0  4  0  0  0  0  0  0
   -1.7549   -4.1658   -6.5233 Si  0  0  0  0  0  4  0  0  0  0  0  0
   -0.8726    2.6279   -6.9109 Si  0  0  0  0  0  4  0  0  0  0  0  0
   -1.5795    0.9262   -5.6872 Si  0  0  0  0  0  4  0  0  0  0  0  0
   -0.7977   -0.3057   -5.9629 H   0  0  0  0  0  0  0  0  0  0  0  0
   -2.9938    0.6521   -6.0722 H   0  0  0  0  0  0  0  0  0  0  0  0
   -3.2843   -2.8068   -7.4212 Si  0  0  0  0  0  4  0  0  0  0  0  0
    0.9921    2.1987   -8.0059 Si  0  0  0  0  0  4  0  0  0  0  0  0
   -2.8202   -2.2859   -9.5132 Si  0  0  0  0  0  4  0  0  0  0  0  0
    1.6988    0.1229   -7.7615 Si  0  0  0  0  0  4  0  0  0  0  0  0
   -0.7286   -4.4804   -7.5181 H   0  0  0  0  0  0  0  0  0  0  0  0
   -2.3567   -5.4372   -6.0744 H   0  0  0  0  0  0  0  0  0  0  0  0
   -4.5827   -3.5393   -7.4095 H   0  0  0  0  0  0  0  0  0  0  0  0
   -3.4493   -1.6559   -6.5464 H   0  0  0  0  0  0  0  0  0  0  0  0
    3.1382    0.0852   -8.1515 H   0  0  0  0  0  0  0  0  0  0  0  0
    1.6652   -0.2906   -6.3442 H   0  0  0  0  0  0  0  0  0  0  0  0
   -1.3693   -0.6027   -9.6772 Si  0  0  0  0  0  4  0  0  0  0  0  0
   -1.3083   -0.2285  -11.1197 H   0  0  0  0  0  0  0  0  0  0  0  0
   -1.8092    0.5894   -8.9619 H   0  0  0  0  0  0  0  0  0  0  0  0
    0.6334   -1.3114   -9.0804 Si  0  0  0  0  0  4  0  0  0  0  0  0
    1.4514   -1.6502  -10.2801 H   0  0  0  0  0  0  0  0  0  0  0  0
    0.5080   -2.5904   -8.3298 H   0  0  0  0  0  0  0  0  0  0  0  0
   -2.1788   -3.4702  -10.1501 H   0  0  0  0  0  0  0  0  0  0  0  0
   -4.0334   -1.9359  -10.2470 H   0  0  0  0  0  0  0  0  0  0  0  0
    0.8807    2.4837   -9.4525 H   0  0  0  0  0  0  0  0  0  0  0  0
    2.0509    3.1147   -7.5004 H   0  0  0  0  0  0  0  0  0  0  0  0
   -0.7114    3.7984   -6.0029 H   0  0  0  0  0  0  0  0  0  0  0  0
   -1.8984    3.0566   -7.9048 H   0  0  0  0  0  0  0  0  0  0  0  0
    0.2944   -2.3870   -5.1782 H   0  0  0  0  0  0  0  0  0  0  0  0
   -0.3275   -4.2949   -3.8131 H   0  0  0  0  0  0  0  0  0  0  0  0
  1  2  1  0
  1  5  1  0
  2  3  1  0
  2  4  1  0
  2 11  1  0
  5  6  1  0
  5  7  1  0
  5  8  1  0
  8  9  1  0
  8 36  1  0
  8 37  1  0
  9 14  1  0
  9 18  1  0
  9 19  1  0
 10 11  1  0
 10 15  1  0
 10 34  1  0
 10 35  1  0
 11 12  1  0
 11 13  1  0
 14 16  1  0
 14 20  1  0
 14 21  1  0
 15 17  1  0
 15 32  1  0
 15 33  1  0
 16 24  1  0
 16 30  1  0
 16 31  1  0
 17 22  1  0
 17 23  1  0
 17 27  1  0
 24 25  1  0
 24 26  1  0
 24 27  1  0
 27 28  1  0
 27 29  1  0
M  CHG  1   1   1
M  RAD  1   1   2
M  END
$$$$

     RDKit          3D

 37 37  0  0  0  0  0  0  0  0999 V2000
   -1.2799   -0.4521   -2.4429 S   0  0  0  0  0  2  0  0  0  0  0  0
   -1.0317   -0.4277   -4.5625 Si  0  0  0  0  0  4  0  0  0  0  0  0
   -0.8509   -1.7629   -5.1244 H   0  0  0  0  0  0  0  0  0  0  0  0
   -2.2274    0.2538   -5.1344 H   0  0  0  0  0  0  0  0  0  0  0  0
   -2.9427   -1.6991   -1.9656 Si  0  0  0  0  0  4  0  0  0  0  0  0
   -2.5004   -3.0893   -1.9488 H   0  0  0  0  0  0  0  0  0  0  0  0
   -3.3973   -1.3605   -0.6000 H   0  0  0  0  0  0  0  0  0  0  0  0
   -4.6616   -1.3696   -3.3435 Si  0  0  0  0  0  4  0  0  0  0  0  0
   -4.3484   -2.3100   -5.3208 Si  0  0  0  0  0  4  0  0  0  0  0  0
    0.4742    1.2478   -7.3670 Si  0  0  0  0  0  4  0  0  0  0  0  0
    0.7356    0.8031   -5.1723 Si  0  0  0  0  0  4  0  0  0  0  0  0
    0.7735    2.0870   -4.4827 H   0  0  0  0  0  0  0  0  0  0  0  0
    1.9925    0.0602   -4.9573 H   0  0  0  0  0  0  0  0  0  0  0  0
   -4.7020   -0.8806   -6.9995 Si  0  0  0  0  0  4  0  0  0  0  0  0
   -0.7821    3.0399   -7.6787 Si  0  0  0  0  0  4  0  0  0  0  0  0
   -5.8783    0.8845   -6.3518 Si  0  0  0  0  0  4  0  0  0  0  0  0
   -1.4322    3.9863   -5.7968 Si  0  0  0  0  0  4  0  0  0  0  0  0
   -2.9743   -2.8571   -5.3569 H   0  0  0  0  0  0  0  0  0  0  0  0
   -5.2469   -3.4768   -5.5298 H   0  0  0  0  0  0  0  0  0  0  0  0
   -5.2790   -1.5466   -8.1747 H   0  0  0  0  0  0  0  0  0  0  0  0
   -3.3614   -0.3866   -7.4254 H   0  0  0  0  0  0  0  0  0  0  0  0
   -1.4516    5.4662   -5.9625 H   0  0  0  0  0  0  0  0  0  0  0  0
   -0.4401    3.7065   -4.7472 H   0  0  0  0  0  0  0  0  0  0  0  0
   -4.7814    2.8013   -6.7866 Si  0  0  0  0  0  4  0  0  0  0  0  0
   -4.0593    2.7029   -8.0640 H   0  0  0  0  0  0  0  0  0  0  0  0
   -5.7994    3.8730   -6.9773 H   0  0  0  0  0  0  0  0  0  0  0  0
   -3.4241    3.3291   -5.1206 Si  0  0  0  0  0  4  0  0  0  0  0  0
   -4.0453    4.4265   -4.3386 H   0  0  0  0  0  0  0  0  0  0  0  0
   -3.3296    2.1794   -4.1947 H   0  0  0  0  0  0  0  0  0  0  0  0
   -6.2146    0.8372   -4.9196 H   0  0  0  0  0  0  0  0  0  0  0  0
   -7.1406    0.9357   -7.1093 H   0  0  0  0  0  0  0  0  0  0  0  0
   -1.9752    2.7522   -8.5155 H   0  0  0  0  0  0  0  0  0  0  0  0
    0.0270    4.0328   -8.4396 H   0  0  0  0  0  0  0  0  0  0  0  0
    1.7932    1.3487   -7.9951 H   0  0  0  0  0  0  0  0  0  0  0  0
   -0.2221    0.0927   -8.0025 H   0  0  0  0  0  0  0  0  0  0  0  0
   -4.9538    0.0505   -3.4145 H   0  0  0  0  0  0  0  0  0  0  0  0
   -5.8470   -2.0221   -2.7179 H   0  0  0  0  0  0  0  0  0  0  0  0
  1  2  1  0
  1  5  1  0
  2  3  1  0
  2  4  1  0
  2 11  1  0
  5  6  1  0
  5  7  1  0
  5  8  1  0
  8  9  1  0
  8 36  1  0
  8 37  1  0
  9 14  1  0
  9 18  1  0
  9 19  1  0
 10 11  1  0
 10 15  1  0
 10 34  1  0
 10 35  1  0
 11 12  1  0
 11 13  1  0
 14 16  1  0
 14 20  1  0
 14 21  1  0
 15 17  1  0
 15 32  1  0
 15 33  1  0
 16 24  1  0
 16 30  1  0
 16 31  1  0
 17 22  1  0
 17 23  1  0
 17 27  1  0
 24 25  1  0
 24 26  1  0
 24 27  1  0
 27 28  1  0
 27 29  1  0
M  CHG  1   1   1
M  RAD  1   1   2
M  END
$$$$

     RDKit          3D

 37 37  0  0  0  0  0  0  0  0999 V2000
   -1.2799   -0.4521   -2.4429 S   0  0  0  0  0  2  0  0  0  0  0  0
    0.7591   -0.3137   -3.1239 Si  0  0  0  0  0  4  0  0  0  0  0  0
    1.6866   -0.5480   -1.9889 H   0  0  0  0  0  0  0  0  0  0  0  0
    1.0145    1.0744   -3.5706 H   0  0  0  0  0  0  0  0  0  0  0  0
   -2.5655    0.3047   -3.9802 Si  0  0  0  0  0  4  0  0  0  0  0  0
   -3.4950   -0.7817   -4.3490 H   0  0  0  0  0  0  0  0  0  0  0  0
   -3.3634    1.4003   -3.4347 H   0  0  0  0  0  0  0  0  0  0  0  0
   -1.3897    0.9478   -5.7763 Si  0  0  0  0  0  4  0  0  0  0  0  0
   -2.0570    2.9638   -6.4118 Si  0  0  0  0  0  4  0  0  0  0  0  0
   -0.6320   -3.1240   -5.0287 Si  0  0  0  0  0  4  0  0  0  0  0  0
    1.1213   -1.7589   -4.7776 Si  0  0  0  0  0  4  0  0  0  0  0  0
    2.3420   -2.5333   -4.4322 H   0  0  0  0  0  0  0  0  0  0  0  0
    1.3328   -1.0820   -6.0688 H   0  0  0  0  0  0  0  0  0  0  0  0
   -2.5521    3.0587   -8.5695 Si  0  0  0  0  0  4  0  0  0  0  0  0
   -1.1651   -3.3482   -7.1941 Si  0  0  0  0  0  4  0  0  0  0  0  0
   -4.5495    2.2464   -9.0350 Si  0  0  0  0  0  4  0  0  0  0  0  0
   -3.3384   -2.9411   -7.5223 Si  0  0  0  0  0  4  0  0  0  0  0  0
   -3.1665    3.4674   -5.5714 H   0  0  0  0  0  0  0  0  0  0  0  0
   -0.9249    3.9035   -6.1734 H   0  0  0  0  0  0  0  0  0  0  0  0
   -2.5220    4.4793   -8.9788 H   0  0  0  0  0  0  0  0  0  0  0  0
   -1.4895    2.3824   -9.3179 H   0  0  0  0  0  0  0  0  0  0  0  0
   -4.0450   -4.1391   -8.0053 H   0  0  0  0  0  0  0  0  0  0  0  0
   -3.9241   -2.5778   -6.2374 H   0  0  0  0  0  0  0  0  0  0  0  0
   -4.9058    0.2545   -8.1337 Si  0  0  0  0  0  4  0  0  0  0  0  0
   -6.3091   -0.1196   -8.4049 H   0  0  0  0  0  0  0  0  0  0  0  0
   -4.7518    0.2697   -6.6716 H   0  0  0  0  0  0  0  0  0  0  0  0
   -3.6162   -1.3182   -9.0488 Si  0  0  0  0  0  4  0  0  0  0  0  0
   -2.2838   -0.7626   -9.3539 H   0  0  0  0  0  0  0  0  0  0  0  0
   -4.2466   -1.8694  -10.2769 H   0  0  0  0  0  0  0  0  0  0  0  0
   -4.7040    2.1439  -10.4793 H   0  0  0  0  0  0  0  0  0  0  0  0
   -5.5830    3.1665   -8.5398 H   0  0  0  0  0  0  0  0  0  0  0  0
   -0.9178   -4.7555   -7.5694 H   0  0  0  0  0  0  0  0  0  0  0  0
   -0.3634   -2.4890   -8.0480 H   0  0  0  0  0  0  0  0  0  0  0  0
   -1.7645   -2.5469   -4.2668 H   0  0  0  0  0  0  0  0  0  0  0  0
   -0.3053   -4.4293   -4.4262 H   0  0  0  0  0  0  0  0  0  0  0  0
   -1.5173   -0.0078   -6.8647 H   0  0  0  0  0  0  0  0  0  0  0  0
    0.0437    0.9431   -5.3673 H   0  0  0  0  0  0  0  0  0  0  0  0
  1  2  1  0
  1  5  1  0
  2  3  1  0
  2  4  1  0
  2 11  1  0
  5  6  1  0
  5  7  1  0
  5  8  1  0
  8  9  1  0
  8 36  1  0
  8 37  1  0
  9 14  1  0
  9 18  1  0
  9 19  1  0
 10 11  1  0
 10 15  1  0
 10 34  1  0
 10 35  1  0
 11 12  1  0
 11 13  1  0
 14 16  1  0
 14 20  1  0
 14 21  1  0
 15 17  1  0
 15 32  1  0
 15 33  1  0
 16 24  1  0
 16 30  1  0
 16 31  1  0
 17 22  1  0
 17 23  1  0
 17 27  1  0
 24 25  1  0
 24 26  1  0
 24 27  1  0
 27 28  1  0
 27 29  1  0
M  CHG  1   1   1
M  RAD  1   1   2
M  END
$$$$

     RDKit          3D

 37 37  0  0  0  0  0  0  0  0999 V2000
   -1.2799   -0.4521   -2.4429 S   0  0  0  0  0  2  0  0  0  0  0  0
   -2.1774   -2.0727   -3.5408 Si  0  0  0  0  0  4  0  0  0  0  0  0
   -1.3732   -2.2892   -4.7682 H   0  0  0  0  0  0  0  0  0  0  0  0
   -2.1018   -3.3261   -2.7695 H   0  0  0  0  0  0  0  0  0  0  0  0
    0.4416    0.3151   -3.4981 Si  0  0  0  0  0  4  0  0  0  0  0  0
    0.4738    1.7829   -3.4659 H   0  0  0  0  0  0  0  0  0  0  0  0
    1.6411   -0.2314   -2.8173 H   0  0  0  0  0  0  0  0  0  0  0  0
    0.3637   -0.4673   -5.5407 Si  0  0  0  0  0  4  0  0  0  0  0  0
    1.8077    0.4124   -6.9469 Si  0  0  0  0  0  4  0  0  0  0  0  0
   -4.4152   -1.1839   -6.3355 Si  0  0  0  0  0  4  0  0  0  0  0  0
   -4.2457   -1.5922   -4.1686 Si  0  0  0  0  0  4  0  0  0  0  0  0
   -4.6607   -0.3619   -3.4420 H   0  0  0  0  0  0  0  0  0  0  0  0
   -5.1790   -2.6690   -3.7997 H   0  0  0  0  0  0  0  0  0  0  0  0
    1.5707   -0.7205   -8.8896 Si  0  0  0  0  0  4  0  0  0  0  0  0
   -4.8516   -3.0071   -7.5209 Si  0  0  0  0  0  4  0  0  0  0  0  0
   -0.3745   -0.2782   -9.8292 Si  0  0  0  0  0  4  0  0  0  0  0  0
   -3.1558   -4.4231   -7.5840 Si  0  0  0  0  0  4  0  0  0  0  0  0
    1.3979    1.8035   -7.2369 H   0  0  0  0  0  0  0  0  0  0  0  0
    3.1787    0.3808   -6.4859 H   0  0  0  0  0  0  0  0  0  0  0  0
    2.7002   -0.4294   -9.7830 H   0  0  0  0  0  0  0  0  0  0  0  0
    1.6425   -2.1482   -8.5394 H   0  0  0  0  0  0  0  0  0  0  0  0
   -2.8670   -4.8526   -6.1951 H   0  0  0  0  0  0  0  0  0  0  0  0
   -3.5527   -5.6044   -8.3262 H   0  0  0  0  0  0  0  0  0  0  0  0
   -1.7024   -2.0293   -9.9879 Si  0  0  0  0  0  4  0  0  0  0  0  0
   -3.1110   -1.5564   -9.8774 H   0  0  0  0  0  0  0  0  0  0  0  0
   -1.5976   -2.6189  -11.3471 H   0  0  0  0  0  0  0  0  0  0  0  0
   -1.3260   -3.5738   -8.4689 Si  0  0  0  0  0  4  0  0  0  0  0  0
   -0.4711   -3.0709   -7.3892 H   0  0  0  0  0  0  0  0  0  0  0  0
   -0.5655   -4.6858   -9.1100 H   0  0  0  0  0  0  0  0  0  0  0  0
   -0.1207    0.2351  -11.2019 H   0  0  0  0  0  0  0  0  0  0  0  0
   -1.0371    0.8000   -9.0515 H   0  0  0  0  0  0  0  0  0  0  0  0
   -5.2721   -2.5921   -8.8660 H   0  0  0  0  0  0  0  0  0  0  0  0
   -5.9915   -3.6927   -6.8953 H   0  0  0  0  0  0  0  0  0  0  0  0
   -3.2392   -0.5072   -6.8892 H   0  0  0  0  0  0  0  0  0  0  0  0
   -5.5553   -0.2556   -6.5289 H   0  0  0  0  0  0  0  0  0  0  0  0
    0.5886   -1.9399   -5.4989 H   0  0  0  0  0  0  0  0  0  0  0  0
   -0.9937   -0.2811   -6.0731 H   0  0  0  0  0  0  0  0  0  0  0  0
  1  2  1  0
  1  5  1  0
  2  3  1  0
  2  4  1  0
  2 11  1  0
  5  6  1  0
  5  7  1  0
  5  8  1  0
  8  9  1  0
  8 36  1  0
  8 37  1  0
  9 14  1  0
  9 18  1  0
  9 19  1  0
 10 11  1  0
 10 15  1  0
 10 34  1  0
 10 35  1  0
 11 12  1  0
 11 13  1  0
 14 16  1  0
 14 20  1  0
 14 21  1  0
 15 17  1  0
 15 32  1  0
 15 33  1  0
 16 24  1  0
 16 30  1  0
 16 31  1  0
 17 22  1  0
 17 23  1  0
 17 27  1  0
 24 25  1  0
 24 26  1  0
 24 27  1  0
 27 28  1  0
 27 29  1  0
M  CHG  1   1   1
M  RAD  1   1   2
M  END
$$$$

     RDKit          3D

 37 37  0  0  0  0  0  0  0  0999 V2000
   -1.2799   -0.4521   -2.4429 S   0  0  0  0  0  2  0  0  0  0  0  0
   -2.1235    1.1144   -3.6602 Si  0  0  0  0  0  4  0  0  0  0  0  0
   -3.1775    0.6200   -4.5327 H   0  0  0  0  0  0  0  0  0  0  0  0
   -2.7160    2.1006   -2.7268 H   0  0  0  0  0  0  0  0  0  0  0  0
   -1.1022   -2.2775   -3.4839 Si  0  0  0  0  0  4  0  0  0  0  0  0
   -0.0738   -3.1138   -2.8049 H   0  0  0  0  0  0  0  0  0  0  0  0
   -2.3779   -3.0178   -3.3908 H   0  0  0  0  0  0  0  0  0  0  0  0
   -0.5596   -2.0603   -5.6055 Si  0  0  0  0  0  4  0  0  0  0  0  0
    1.6344   -1.7976   -5.9099 Si  0  0  0  0  0  4  0  0  0  0  0  0
   -0.9808    3.8997   -5.8097 Si  0  0  0  0  0  4  0  0  0  0  0  0
   -0.4669    2.0020   -4.8229 Si  0  0  0  0  0  4  0  0  0  0  0  0
    0.7235    2.1726   -3.9692 H   0  0  0  0  0  0  0  0  0  0  0  0
   -0.0814    1.0266   -5.8781 H   0  0  0  0  0  0  0  0  0  0  0  0
    2.2743   -2.6000   -7.8974 Si  0  0  0  0  0  4  0  0  0  0  0  0
    0.0463    4.0404   -7.7905 Si  0  0  0  0  0  4  0  0  0  0  0  0
    3.5307   -1.1574   -9.0085 Si  0  0  0  0  0  4  0  0  0  0  0  0
    1.2808    2.2337   -8.0962 Si  0  0  0  0  0  4  0  0  0  0  0  0
    1.9860   -0.3550   -5.8700 H   0  0  0  0  0  0  0  0  0  0  0  0
    2.3462   -2.4545   -4.8201 H   0  0  0  0  0  0  0  0  0  0  0  0
    3.0522   -3.8450   -7.6353 H   0  0  0  0  0  0  0  0  0  0  0  0
    1.0971   -3.0377   -8.6930 H   0  0  0  0  0  0  0  0  0  0  0  0
    0.3995    1.0490   -7.8916 H   0  0  0  0  0  0  0  0  0  0  0  0
    2.2889    2.1609   -7.0121 H   0  0  0  0  0  0  0  0  0  0  0  0
    2.3900   -0.0907  -10.5988 Si  0  0  0  0  0  4  0  0  0  0  0  0
    3.0762   -0.1508  -11.8963 H   0  0  0  0  0  0  0  0  0  0  0  0
    1.0226   -0.6203  -10.7075 H   0  0  0  0  0  0  0  0  0  0  0  0
    2.1799    2.0980  -10.0949 Si  0  0  0  0  0  4  0  0  0  0  0  0
    3.5323    2.7232  -10.0578 H   0  0  0  0  0  0  0  0  0  0  0  0
    1.3547    2.7272  -11.1095 H   0  0  0  0  0  0  0  0  0  0  0  0
    4.6105   -1.9166   -9.6831 H   0  0  0  0  0  0  0  0  0  0  0  0
    4.1874   -0.2239   -8.0913 H   0  0  0  0  0  0  0  0  0  0  0  0
    0.8928    5.2443   -7.8577 H   0  0  0  0  0  0  0  0  0  0  0  0
   -1.0125    4.1063   -8.8339 H   0  0  0  0  0  0  0  0  0  0  0  0
   -0.4845    5.0173   -4.9572 H   0  0  0  0  0  0  0  0  0  0  0  0
   -2.4288    4.1115   -5.9456 H   0  0  0  0  0  0  0  0  0  0  0  0
   -0.9410   -3.3149   -6.3141 H   0  0  0  0  0  0  0  0  0  0  0  0
   -1.3370   -0.9872   -6.2363 H   0  0  0  0  0  0  0  0  0  0  0  0
  1  2  1  0
  1  5  1  0
  2  3  1  0
  2  4  1  0
  2 11  1  0
  5  6  1  0
  5  7  1  0
  5  8  1  0
  8  9  1  0
  8 36  1  0
  8 37  1  0
  9 14  1  0
  9 18  1  0
  9 19  1  0
 10 11  1  0
 10 15  1  0
 10 34  1  0
 10 35  1  0
 11 12  1  0
 11 13  1  0
 14 16  1  0
 14 20  1  0
 14 21  1  0
 15 17  1  0
 15 32  1  0
 15 33  1  0
 16 24  1  0
 16 30  1  0
 16 31  1  0
 17 22  1  0
 17 23  1  0
 17 27  1  0
 24 25  1  0
 24 26  1  0
 24 27  1  0
 27 28  1  0
 27 29  1  0
M  CHG  1   1   1
M  RAD  1   1   2
M  END
$$$$

     RDKit          3D

 37 37  0  0  0  0  0  0  0  0999 V2000
   -1.2799   -0.4521   -2.4429 S   0  0  0  0  0  2  0  0  0  0  0  0
   -1.3061    1.3192   -3.6805 Si  0  0  0  0  0  4  0  0  0  0  0  0
   -2.5646    2.0365   -3.3521 H   0  0  0  0  0  0  0  0  0  0  0  0
   -0.1924    2.1985   -3.3948 H   0  0  0  0  0  0  0  0  0  0  0  0
   -2.4817   -1.9361   -3.4607 Si  0  0  0  0  0  4  0  0  0  0  0  0
   -3.3316   -2.6054   -2.4734 H   0  0  0  0  0  0  0  0  0  0  0  0
   -3.3688   -1.3080   -4.4478 H   0  0  0  0  0  0  0  0  0  0  0  0
   -1.2075   -3.4665   -4.4418 Si  0  0  0  0  0  4  0  0  0  0  0  0
   -2.2614   -4.4211   -6.1780 Si  0  0  0  0  0  4  0  0  0  0  0  0
   -0.3681    2.1005   -7.1618 Si  0  0  0  0  0  4  0  0  0  0  0  0
   -1.3348    0.6446   -5.8058 Si  0  0  0  0  0  4  0  0  0  0  0  0
   -0.7433   -0.7098   -5.9486 H   0  0  0  0  0  0  0  0  0  0  0  0
   -2.7700    0.5480   -6.1990 H   0  0  0  0  0  0  0  0  0  0  0  0
   -3.5604   -2.9410   -7.2335 Si  0  0  0  0  0  4  0  0  0  0  0  0
    1.4231    1.2992   -8.1667 Si  0  0  0  0  0  4  0  0  0  0  0  0
   -3.0011   -2.6932   -9.3523 Si  0  0  0  0  0  4  0  0  0  0  0  0
    1.8084   -0.8262   -7.7167 Si  0  0  0  0  0  4  0  0  0  0  0  0
   -1.2831   -4.9761   -7.1143 H   0  0  0  0  0  0  0  0  0  0  0  0
   -3.0515   -5.5415   -5.6299 H   0  0  0  0  0  0  0  0  0  0  0  0
   -4.9538   -3.4688   -7.1871 H   0  0  0  0  0  0  0  0  0  0  0  0
   -3.5607   -1.7013   -6.4717 H   0  0  0  0  0  0  0  0  0  0  0  0
    3.2301   -1.1129   -8.0660 H   0  0  0  0  0  0  0  0  0  0  0  0
    1.6981   -1.0953   -6.2689 H   0  0  0  0  0  0  0  0  0  0  0  0
   -1.3129   -1.2662   -9.6333 Si  0  0  0  0  0  4  0  0  0  0  0  0
   -1.1810   -1.0423  -11.1020 H   0  0  0  0  0  0  0  0  0  0  0  0
   -1.5771    0.0396   -9.0408 H   0  0  0  0  0  0  0  0  0  0  0  0
    0.5546   -2.2044   -8.9251 Si  0  0  0  0  0  4  0  0  0  0  0  0
    1.3256   -2.7716  -10.0684 H   0  0  0  0  0  0  0  0  0  0  0  0
    0.2311   -3.3746   -8.0643 H   0  0  0  0  0  0  0  0  0  0  0  0
   -2.5373   -4.0140   -9.8625 H   0  0  0  0  0  0  0  0  0  0  0  0
   -4.1402   -2.2379  -10.1447 H   0  0  0  0  0  0  0  0  0  0  0  0
    1.3712    1.4604   -9.6356 H   0  0  0  0  0  0  0  0  0  0  0  0
    2.6016    2.0917   -7.7210 H   0  0  0  0  0  0  0  0  0  0  0  0
   -0.0432    3.3143   -6.3607 H   0  0  0  0  0  0  0  0  0  0  0  0
   -1.3073    2.5811   -8.2157 H   0  0  0  0  0  0  0  0  0  0  0  0
    0.0165   -2.8469   -4.9507 H   0  0  0  0  0  0  0  0  0  0  0  0
   -0.8987   -4.5051   -3.4330 H   0  0  0  0  0  0  0  0  0  0  0  0
  1  2  1  0
  1  5  1  0
  2  3  1  0
  2  4  1  0
  2 11  1  0
  5  6  1  0
  5  7  1  0
  5  8  1  0
  8  9  1  0
  8 36  1  0
  8 37  1  0
  9 14  1  0
  9 18  1  0
  9 19  1  0
 10 11  1  0
 10 15  1  0
 10 34  1  0
 10 35  1  0
 11 12  1  0
 11 13  1  0
 14 16  1  0
 14 20  1  0
 14 21  1  0
 15 17  1  0
 15 32  1  0
 15 33  1  0
 16 24  1  0
 16 30  1  0
 16 31  1  0
 17 22  1  0
 17 23  1  0
 17 27  1  0
 24 25  1  0
 24 26  1  0
 24 27  1  0
 27 28  1  0
 27 29  1  0
M  CHG  1   1   1
M  RAD  1   1   2
M  END
$$$$

     RDKit          3D

 37 37  0  0  0  0  0  0  0  0999 V2000
   -1.2799   -0.4521   -2.4429 S   0  0  0  0  0  2  0  0  0  0  0  0
   -2.2093   -1.4385   -4.1102 Si  0  0  0  0  0  4  0  0  0  0  0  0
   -1.8248   -0.6191   -5.2963 H   0  0  0  0  0  0  0  0  0  0  0  0
   -3.6554   -1.4460   -3.9423 H   0  0  0  0  0  0  0  0  0  0  0  0
   -1.7411    1.6505   -2.7361 Si  0  0  0  0  0  4  0  0  0  0  0  0
   -0.9068    2.4840   -1.8630 H   0  0  0  0  0  0  0  0  0  0  0  0
   -3.1795    1.7891   -2.4036 H   0  0  0  0  0  0  0  0  0  0  0  0
   -1.4421    2.1985   -4.8998 Si  0  0  0  0  0  4  0  0  0  0  0  0
   -3.2608    1.8403   -6.0921 Si  0  0  0  0  0  4  0  0  0  0  0  0
   -2.1678   -4.1881   -6.4385 Si  0  0  0  0  0  4  0  0  0  0  0  0
   -1.3724   -3.4601   -4.4667 Si  0  0  0  0  0  4  0  0  0  0  0  0
    0.0813   -3.3476   -4.5727 H   0  0  0  0  0  0  0  0  0  0  0  0
   -1.7891   -4.3882   -3.4167 H   0  0  0  0  0  0  0  0  0  0  0  0
   -2.8094    0.8869   -8.0626 Si  0  0  0  0  0  4  0  0  0  0  0  0
   -0.5845   -4.3430   -7.9629 Si  0  0  0  0  0  4  0  0  0  0  0  0
   -1.0299    1.7337   -9.0266 Si  0  0  0  0  0  4  0  0  0  0  0  0
   -0.1754   -2.3984   -8.9752 Si  0  0  0  0  0  4  0  0  0  0  0  0
   -4.1829    0.9744   -5.3225 H   0  0  0  0  0  0  0  0  0  0  0  0
   -4.0174    3.0978   -6.3430 H   0  0  0  0  0  0  0  0  0  0  0  0
   -2.6308   -0.5676   -7.7977 H   0  0  0  0  0  0  0  0  0  0  0  0
   -3.9888    1.0020   -8.9274 H   0  0  0  0  0  0  0  0  0  0  0  0
   -1.3824   -1.7629   -9.4703 H   0  0  0  0  0  0  0  0  0  0  0  0
    0.7441   -2.6804  -10.1014 H   0  0  0  0  0  0  0  0  0  0  0  0
    0.8771    1.0485   -8.1879 Si  0  0  0  0  0  4  0  0  0  0  0  0
    1.9339    1.2055   -9.2291 H   0  0  0  0  0  0  0  0  0  0  0  0
    1.3296    1.8739   -7.0460 H   0  0  0  0  0  0  0  0  0  0  0  0
    0.8762   -1.0651   -7.5560 Si  0  0  0  0  0  4  0  0  0  0  0  0
    2.2965   -1.5183   -7.4914 H   0  0  0  0  0  0  0  0  0  0  0  0
    0.3362   -1.2523   -6.2018 H   0  0  0  0  0  0  0  0  0  0  0  0
   -1.0663    1.4194  -10.4778 H   0  0  0  0  0  0  0  0  0  0  0  0
   -1.0910    3.2188   -8.9089 H   0  0  0  0  0  0  0  0  0  0  0  0
   -1.0499   -5.2866   -9.0191 H   0  0  0  0  0  0  0  0  0  0  0  0
    0.6497   -4.8807   -7.4265 H   0  0  0  0  0  0  0  0  0  0  0  0
   -3.2292   -3.3102   -6.9416 H   0  0  0  0  0  0  0  0  0  0  0  0
   -2.7867   -5.5305   -6.2697 H   0  0  0  0  0  0  0  0  0  0  0  0
   -0.3525    1.3806   -5.4034 H   0  0  0  0  0  0  0  0  0  0  0  0
   -1.1266    3.6532   -4.9687 H   0  0  0  0  0  0  0  0  0  0  0  0
  1  2  1  0
  1  5  1  0
  2  3  1  0
  2  4  1  0
  2 11  1  0
  5  6  1  0
  5  7  1  0
  5  8  1  0
  8  9  1  0
  8 36  1  0
  8 37  1  0
  9 14  1  0
  9 18  1  0
  9 19  1  0
 10 11  1  0
 10 15  1  0
 10 34  1  0
 10 35  1  0
 11 12  1  0
 11 13  1  0
 14 16  1  0
 14 20  1  0
 14 21  1  0
 15 17  1  0
 15 32  1  0
 15 33  1  0
 16 24  1  0
 16 30  1  0
 16 31  1  0
 17 22  1  0
 17 23  1  0
 17 27  1  0
 24 25  1  0
 24 26  1  0
 24 27  1  0
 27 28  1  0
 27 29  1  0
M  CHG  1   1   1
M  RAD  1   1   2
M  END
$$$$

     RDKit          3D

 37 37  0  0  0  0  0  0  0  0999 V2000
   -1.2799   -0.4521   -2.4429 S   0  0  0  0  0  2  0  0  0  0  0  0
   -2.4653    1.2807   -2.9553 Si  0  0  0  0  0  4  0  0  0  0  0  0
   -3.8332    1.0145   -2.4416 H   0  0  0  0  0  0  0  0  0  0  0  0
   -1.9680    2.4851   -2.3250 H   0  0  0  0  0  0  0  0  0  0  0  0
   -1.6512   -1.9318   -3.9776 Si  0  0  0  0  0  4  0  0  0  0  0  0
   -1.8241   -3.2366   -3.3355 H   0  0  0  0  0  0  0  0  0  0  0  0
   -2.8909   -1.6347   -4.7060 H   0  0  0  0  0  0  0  0  0  0  0  0
    0.0539   -2.0667   -5.3927 Si  0  0  0  0  0  4  0  0  0  0  0  0
   -0.6030   -2.8291   -7.3986 Si  0  0  0  0  0  4  0  0  0  0  0  0
   -2.7087    3.5215   -5.8757 Si  0  0  0  0  0  4  0  0  0  0  0  0
   -2.4926    1.4330   -5.1798 Si  0  0  0  0  0  4  0  0  0  0  0  0
   -1.3016    0.7792   -5.7788 H   0  0  0  0  0  0  0  0  0  0  0  0
   -3.6938    0.6789   -5.6402 H   0  0  0  0  0  0  0  0  0  0  0  0
   -2.6521   -2.0922   -7.8993 Si  0  0  0  0  0  4  0  0  0  0  0  0
   -0.9720    4.2405   -7.0278 Si  0  0  0  0  0  4  0  0  0  0  0  0
   -2.6876   -0.9085   -9.7596 Si  0  0  0  0  0  4  0  0  0  0  0  0
    0.5645    2.6927   -7.3622 Si  0  0  0  0  0  4  0  0  0  0  0  0
    0.3419   -2.4014   -8.4311 H   0  0  0  0  0  0  0  0  0  0  0  0
   -0.5600   -4.3031   -7.3264 H   0  0  0  0  0  0  0  0  0  0  0  0
   -3.5118   -3.2927   -8.1047 H   0  0  0  0  0  0  0  0  0  0  0  0
   -3.1866   -1.3923   -6.7411 H   0  0  0  0  0  0  0  0  0  0  0  0
    1.8327    3.3855   -7.7327 H   0  0  0  0  0  0  0  0  0  0  0  0
    0.8669    1.9606   -6.1159 H   0  0  0  0  0  0  0  0  0  0  0  0
   -2.1074    1.2183   -9.4351 Si  0  0  0  0  0  4  0  0  0  0  0  0
   -2.3713    1.9348  -10.7163 H   0  0  0  0  0  0  0  0  0  0  0  0
   -2.9246    1.8747   -8.4215 H   0  0  0  0  0  0  0  0  0  0  0  0
    0.0606    1.3257   -9.0382 Si  0  0  0  0  0  4  0  0  0  0  0  0
    0.8052    1.6939  -10.2764 H   0  0  0  0  0  0  0  0  0  0  0  0
    0.5696   -0.0246   -8.6735 H   0  0  0  0  0  0  0  0  0  0  0  0
   -1.6834   -1.4905  -10.6938 H   0  0  0  0  0  0  0  0  0  0  0  0
   -4.0092   -0.9473  -10.3797 H   0  0  0  0  0  0  0  0  0  0  0  0
   -1.3541    4.8060   -8.3394 H   0  0  0  0  0  0  0  0  0  0  0  0
   -0.3472    5.3637   -6.2772 H   0  0  0  0  0  0  0  0  0  0  0  0
   -2.9540    4.3719   -4.6768 H   0  0  0  0  0  0  0  0  0  0  0  0
   -3.9239    3.6983   -6.7219 H   0  0  0  0  0  0  0  0  0  0  0  0
    0.6448   -0.7430   -5.5917 H   0  0  0  0  0  0  0  0  0  0  0  0
    1.0400   -3.0087   -4.8164 H   0  0  0  0  0  0  0  0  0  0  0  0
  1  2  1  0
  1  5  1  0
  2  3  1  0
  2  4  1  0
  2 11  1  0
  5  6  1  0
  5  7  1  0
  5  8  1  0
  8  9  1  0
  8 36  1  0
  8 37  1  0
  9 14  1  0
  9 18  1  0
  9 19  1  0
 10 11  1  0
 10 15  1  0
 10 34  1  0
 10 35  1  0
 11 12  1  0
 11 13  1  0
 14 16  1  0
 14 20  1  0
 14 21  1  0
 15 17  1  0
 15 32  1  0
 15 33  1  0
 16 24  1  0
 16 30  1  0
 16 31  1  0
 17 22  1  0
 17 23  1  0
 17 27  1  0
 24 25  1  0
 24 26  1  0
 24 27  1  0
 27 28  1  0
 27 29  1  0
M  CHG  1   1   1
M  RAD  1   1   2
M  END
$$$$
