
     RDKit          3D

 37 37  0  0  0  0  0  0  0  0999 V2000
   -0.4003   -1.6418   -4.5215 S   0  0  0  0  0  2  0  0  0  0  0  0
    1.6923   -1.3202   -4.3997 Si  0  0  0  0  0  4  0  0  0  0  0  0
    1.9193   -0.3117   -3.3347 H   0  0  0  0  0  0  0  0  0  0  0  0
    2.2459   -0.7120   -5.6394 H   0  0  0  0  0  0  0  0  0  0  0  0
   -0.9681   -3.1683   -5.8601 Si  0  0  0  0  0  4  0  0  0  0  0  0
   -0.1229   -4.3626   -5.8001 H   0  0  0  0  0  0  0  0  0  0  0  0
   -2.3431   -3.6173   -5.4905 H   0  0  0  0  0  0  0  0  0  0  0  0
   -1.1486   -2.4178   -7.9748 Si  0  0  0  0  0  4  0  0  0  0  0  0
   -1.0252   -4.1489   -9.4106 Si  0  0  0  0  0  4  0  0  0  0  0  0
    3.8150   -4.0521   -5.6436 Si  0  0  0  0  0  4  0  0  0  0  0  0
    2.8253   -3.1434   -3.8491 Si  0  0  0  0  0  4  0  0  0  0  0  0
    1.9928   -4.1342   -3.1418 H   0  0  0  0  0  0  0  0  0  0  0  0
    3.9209   -2.7916   -2.8994 H   0  0  0  0  0  0  0  0  0  0  0  0
   -0.8820   -3.3771  -11.4785 Si  0  0  0  0  0  4  0  0  0  0  0  0
    2.9526   -3.1892   -7.4800 Si  0  0  0  0  0  4  0  0  0  0  0  0
    1.2033   -3.2786  -12.2182 Si  0  0  0  0  0  4  0  0  0  0  0  0
    4.4657   -2.4380   -8.8958 Si  0  0  0  0  0  4  0  0  0  0  0  0
    0.0540   -5.0513   -9.0615 H   0  0  0  0  0  0  0  0  0  0  0  0
   -2.2933   -4.9158   -9.2906 H   0  0  0  0  0  0  0  0  0  0  0  0
   -1.4538   -2.0121  -11.5123 H   0  0  0  0  0  0  0  0  0  0  0  0
   -1.7130   -4.1889  -12.3939 H   0  0  0  0  0  0  0  0  0  0  0  0
    5.7944   -2.3428   -8.2891 H   0  0  0  0  0  0  0  0  0  0  0  0
    4.1194   -1.0619   -9.3537 H   0  0  0  0  0  0  0  0  0  0  0  0
    2.5525   -4.6708  -11.1231 Si  0  0  0  0  0  4  0  0  0  0  0  0
    2.7981   -5.8388  -12.0154 H   0  0  0  0  0  0  0  0  0  0  0  0
    1.9162   -5.1941   -9.9213 H   0  0  0  0  0  0  0  0  0  0  0  0
    4.5180   -3.7211  -10.7224 Si  0  0  0  0  0  4  0  0  0  0  0  0
    5.5355   -4.7511  -10.5740 H   0  0  0  0  0  0  0  0  0  0  0  0
    4.8576   -2.8907  -11.9114 H   0  0  0  0  0  0  0  0  0  0  0  0
    1.7340   -1.9216  -12.0665 H   0  0  0  0  0  0  0  0  0  0  0  0
    1.2090   -3.5870  -13.6724 H   0  0  0  0  0  0  0  0  0  0  0  0
    2.1109   -4.2187   -8.1377 H   0  0  0  0  0  0  0  0  0  0  0  0
    2.0265   -2.0817   -7.1351 H   0  0  0  0  0  0  0  0  0  0  0  0
    3.5651   -5.5204   -5.5807 H   0  0  0  0  0  0  0  0  0  0  0  0
    5.2633   -3.8792   -5.6115 H   0  0  0  0  0  0  0  0  0  0  0  0
   -2.4291   -1.7709   -8.1855 H   0  0  0  0  0  0  0  0  0  0  0  0
   -0.0341   -1.4865   -8.2325 H   0  0  0  0  0  0  0  0  0  0  0  0
  1  2  1  0
  1  5  1  0
  2  3  1  0
  2  4  1  0
  2 11  1  0
  5  6  1  0
  5  7  1  0
  5  8  1  0
  8  9  1  0
  8 36  1  0
  8 37  1  0
  9 14  1  0
  9 18  1  0
  9 19  1  0
 10 11  1  0
 10 15  1  0
 10 34  1  0
 10 35  1  0
 11 12  1  0
 11 13  1  0
 14 16  1  0
 14 20  1  0
 14 21  1  0
 15 17  1  0
 15 32  1  0
 15 33  1  0
 16 24  1  0
 16 30  1  0
 16 31  1  0
 17 22  1  0
 17 23  1  0
 17 27  1  0
 24 25  1  0
 24 26  1  0
 24 27  1  0
 27 28  1  0
 27 29  1  0
M  CHG  1   1   1
M  RAD  1   1   2
M  END
$$$$

     RDKit          3D

 37 37  0  0  0  0  0  0  0  0999 V2000
   -0.4003   -1.6418   -4.5215 S   0  0  0  0  0  2  0  0  0  0  0  0
    0.5536   -0.9155   -6.2640 Si  0  0  0  0  0  4  0  0  0  0  0  0
    1.2438   -1.9334   -7.0349 H   0  0  0  0  0  0  0  0  0  0  0  0
    1.5565    0.1044   -5.8438 H   0  0  0  0  0  0  0  0  0  0  0  0
   -0.1305   -3.7105   -4.1961 Si  0  0  0  0  0  4  0  0  0  0  0  0
   -0.7255   -4.4456   -5.3419 H   0  0  0  0  0  0  0  0  0  0  0  0
   -0.8425   -4.1116   -2.9908 H   0  0  0  0  0  0  0  0  0  0  0  0
    1.9955   -4.3031   -3.9878 Si  0  0  0  0  0  4  0  0  0  0  0  0
    3.1927   -3.9065   -5.7911 Si  0  0  0  0  0  4  0  0  0  0  0  0
   -1.6794   -1.2878   -9.1762 Si  0  0  0  0  0  4  0  0  0  0  0  0
   -0.8763    0.1263   -7.6415 Si  0  0  0  0  0  4  0  0  0  0  0  0
   -1.9473    0.7937   -6.9083 H   0  0  0  0  0  0  0  0  0  0  0  0
   -0.1053    1.1620   -8.3857 H   0  0  0  0  0  0  0  0  0  0  0  0
    4.9747   -5.2865   -5.8811 Si  0  0  0  0  0  4  0  0  0  0  0  0
   -0.8765   -3.3196   -8.8357 Si  0  0  0  0  0  4  0  0  0  0  0  0
    4.9774   -6.4656   -7.7564 Si  0  0  0  0  0  4  0  0  0  0  0  0
    0.8284   -3.7817  -10.2242 Si  0  0  0  0  0  4  0  0  0  0  0  0
    3.7244   -2.5185   -5.6999 H   0  0  0  0  0  0  0  0  0  0  0  0
    2.4567   -4.0046   -7.0347 H   0  0  0  0  0  0  0  0  0  0  0  0
    4.8617   -6.2442   -4.7496 H   0  0  0  0  0  0  0  0  0  0  0  0
    6.2214   -4.5449   -5.6916 H   0  0  0  0  0  0  0  0  0  0  0  0
    1.7807   -2.6578  -10.1145 H   0  0  0  0  0  0  0  0  0  0  0  0
    0.3725   -3.9672  -11.5875 H   0  0  0  0  0  0  0  0  0  0  0  0
    4.0612   -5.3797   -9.4533 Si  0  0  0  0  0  4  0  0  0  0  0  0
    4.5469   -6.0015  -10.7149 H   0  0  0  0  0  0  0  0  0  0  0  0
    4.4413   -3.9568   -9.4125 H   0  0  0  0  0  0  0  0  0  0  0  0
    1.8389   -5.6206   -9.4314 Si  0  0  0  0  0  4  0  0  0  0  0  0
    1.4078   -6.7574  -10.2594 H   0  0  0  0  0  0  0  0  0  0  0  0
    1.4155   -5.9118   -8.0539 H   0  0  0  0  0  0  0  0  0  0  0  0
    6.3914   -6.7535   -8.1097 H   0  0  0  0  0  0  0  0  0  0  0  0
    4.3329   -7.7877   -7.5893 H   0  0  0  0  0  0  0  0  0  0  0  0
   -1.9107   -4.3636   -8.9128 H   0  0  0  0  0  0  0  0  0  0  0  0
   -0.3165   -3.3747   -7.4743 H   0  0  0  0  0  0  0  0  0  0  0  0
   -1.4391   -0.8260  -10.5339 H   0  0  0  0  0  0  0  0  0  0  0  0
   -3.1517   -1.3431   -8.9901 H   0  0  0  0  0  0  0  0  0  0  0  0
    2.5864   -3.6653   -2.8102 H   0  0  0  0  0  0  0  0  0  0  0  0
    2.0185   -5.7648   -3.7309 H   0  0  0  0  0  0  0  0  0  0  0  0
  1  2  1  0
  1  5  1  0
  2  3  1  0
  2  4  1  0
  2 11  1  0
  5  6  1  0
  5  7  1  0
  5  8  1  0
  8  9  1  0
  8 36  1  0
  8 37  1  0
  9 14  1  0
  9 18  1  0
  9 19  1  0
 10 11  1  0
 10 15  1  0
 10 34  1  0
 10 35  1  0
 11 12  1  0
 11 13  1  0
 14 16  1  0
 14 20  1  0
 14 21  1  0
 15 17  1  0
 15 32  1  0
 15 33  1  0
 16 24  1  0
 16 30  1  0
 16 31  1  0
 17 22  1  0
 17 23  1  0
 17 27  1  0
 24 25  1  0
 24 26  1  0
 24 27  1  0
 27 28  1  0
 27 29  1  0
M  CHG  1   1   1
M  RAD  1   1   2
M  END
$$$$

     RDKit          3D

 37 37  0  0  0  0  0  0  0  0999 V2000
   -0.4003   -1.6418   -4.5215 S   0  0  0  0  0  2  0  0  0  0  0  0
   -0.0063   -0.0064   -5.8339 Si  0  0  0  0  0  4  0  0  0  0  0  0
   -1.0481    1.0266   -5.5706 H   0  0  0  0  0  0  0  0  0  0  0  0
    1.2837    0.6540   -5.5129 H   0  0  0  0  0  0  0  0  0  0  0  0
    1.2769   -2.9451   -4.3215 Si  0  0  0  0  0  4  0  0  0  0  0  0
    2.3693   -2.3142   -3.5404 H   0  0  0  0  0  0  0  0  0  0  0  0
    0.8402   -4.1334   -3.5702 H   0  0  0  0  0  0  0  0  0  0  0  0
    2.0693   -3.5940   -6.2772 Si  0  0  0  0  0  4  0  0  0  0  0  0
    2.7542   -5.7107   -6.2635 Si  0  0  0  0  0  4  0  0  0  0  0  0
    1.8330   -0.3322   -8.9814 Si  0  0  0  0  0  4  0  0  0  0  0  0
   -0.1451   -0.5779   -7.9693 Si  0  0  0  0  0  4  0  0  0  0  0  0
   -0.6559   -1.9493   -8.1018 H   0  0  0  0  0  0  0  0  0  0  0  0
   -1.1071    0.2904   -8.7004 H   0  0  0  0  0  0  0  0  0  0  0  0
    1.0337   -7.0483   -6.7942 Si  0  0  0  0  0  4  0  0  0  0  0  0
    1.6918   -0.8669  -11.1248 Si  0  0  0  0  0  4  0  0  0  0  0  0
    0.3221   -6.4387   -8.8291 Si  0  0  0  0  0  4  0  0  0  0  0  0
    1.2871   -3.0263  -11.4327 Si  0  0  0  0  0  4  0  0  0  0  0  0
    3.7376   -5.8559   -7.3745 H   0  0  0  0  0  0  0  0  0  0  0  0
    3.3685   -6.0963   -5.0018 H   0  0  0  0  0  0  0  0  0  0  0  0
    1.4342   -8.4485   -6.7520 H   0  0  0  0  0  0  0  0  0  0  0  0
   -0.0448   -6.7886   -5.8420 H   0  0  0  0  0  0  0  0  0  0  0  0
   -0.0542   -3.3627  -10.9250 H   0  0  0  0  0  0  0  0  0  0  0  0
    1.2581   -3.2745  -12.8872 H   0  0  0  0  0  0  0  0  0  0  0  0
    1.9693   -6.3860  -10.2996 Si  0  0  0  0  0  4  0  0  0  0  0  0
    2.9993   -7.3702   -9.9992 H   0  0  0  0  0  0  0  0  0  0  0  0
    1.4044   -6.7543  -11.6294 H   0  0  0  0  0  0  0  0  0  0  0  0
    2.8222   -4.3276  -10.5319 Si  0  0  0  0  0  4  0  0  0  0  0  0
    3.3821   -3.8251   -9.2960 H   0  0  0  0  0  0  0  0  0  0  0  0
    3.9461   -4.4503  -11.5029 H   0  0  0  0  0  0  0  0  0  0  0  0
   -0.6528   -7.4776   -9.2590 H   0  0  0  0  0  0  0  0  0  0  0  0
   -0.4122   -5.1889   -8.7266 H   0  0  0  0  0  0  0  0  0  0  0  0
    2.9339   -0.4739  -11.7935 H   0  0  0  0  0  0  0  0  0  0  0  0
    0.6015   -0.1032  -11.7352 H   0  0  0  0  0  0  0  0  0  0  0  0
    2.2042    1.0884   -8.8882 H   0  0  0  0  0  0  0  0  0  0  0  0
    2.8837   -1.0980   -8.2970 H   0  0  0  0  0  0  0  0  0  0  0  0
    1.0267   -3.4567   -7.2902 H   0  0  0  0  0  0  0  0  0  0  0  0
    3.2563   -2.7540   -6.6003 H   0  0  0  0  0  0  0  0  0  0  0  0
  1  2  1  0
  1  5  1  0
  2  3  1  0
  2  4  1  0
  2 11  1  0
  5  6  1  0
  5  7  1  0
  5  8  1  0
  8  9  1  0
  8 36  1  0
  8 37  1  0
  9 14  1  0
  9 18  1  0
  9 19  1  0
 10 11  1  0
 10 15  1  0
 10 34  1  0
 10 35  1  0
 11 12  1  0
 11 13  1  0
 14 16  1  0
 14 20  1  0
 14 21  1  0
 15 17  1  0
 15 32  1  0
 15 33  1  0
 16 24  1  0
 16 30  1  0
 16 31  1  0
 17 22  1  0
 17 23  1  0
 17 27  1  0
 24 25  1  0
 24 26  1  0
 24 27  1  0
 27 28  1  0
 27 29  1  0
M  CHG  1   1   1
M  RAD  1   1   2
M  END
$$$$

     RDKit          3D

 37 37  0  0  0  0  0  0  0  0999 V2000
   -0.4003   -1.6418   -4.5215 S   0  0  0  0  0  2  0  0  0  0  0  0
   -0.6786   -3.5915   -5.4276 Si  0  0  0  0  0  4  0  0  0  0  0  0
   -0.5215   -4.6555   -4.4652 H   0  0  0  0  0  0  0  0  0  0  0  0
    0.3488   -3.6470   -6.5100 H   0  0  0  0  0  0  0  0  0  0  0  0
    1.6597   -1.0059   -4.7910 Si  0  0  0  0  0  4  0  0  0  0  0  0
    2.0275   -0.3748   -3.4862 H   0  0  0  0  0  0  0  0  0  0  0  0
    1.7633    0.0480   -5.7791 H   0  0  0  0  0  0  0  0  0  0  0  0
    2.9003   -2.7701   -5.2574 Si  0  0  0  0  0  4  0  0  0  0  0  0
    4.3087   -2.5675   -6.8865 Si  0  0  0  0  0  4  0  0  0  0  0  0
   -2.3665   -4.8009   -8.4470 Si  0  0  0  0  0  4  0  0  0  0  0  0
   -2.6392   -3.6804   -6.5042 Si  0  0  0  0  0  4  0  0  0  0  0  0
   -3.0908   -2.3209   -6.8786 H   0  0  0  0  0  0  0  0  0  0  0  0
   -3.6509   -4.3320   -5.6792 H   0  0  0  0  0  0  0  0  0  0  0  0
    4.0309   -1.0949   -8.4331 Si  0  0  0  0  0  4  0  0  0  0  0  0
   -0.6920   -6.2200   -8.2077 Si  0  0  0  0  0  4  0  0  0  0  0  0
    2.0776   -0.4076   -9.0328 Si  0  0  0  0  0  4  0  0  0  0  0  0
    1.2663   -5.4078   -8.7832 Si  0  0  0  0  0  4  0  0  0  0  0  0
    5.6860   -2.3878   -6.3107 H   0  0  0  0  0  0  0  0  0  0  0  0
    4.4488   -3.9204   -7.5274 H   0  0  0  0  0  0  0  0  0  0  0  0
    4.7931    0.1460   -8.0662 H   0  0  0  0  0  0  0  0  0  0  0  0
    4.7513   -1.5468   -9.6686 H   0  0  0  0  0  0  0  0  0  0  0  0
    2.0688   -6.5119   -9.3856 H   0  0  0  0  0  0  0  0  0  0  0  0
    2.0359   -4.9279   -7.6357 H   0  0  0  0  0  0  0  0  0  0  0  0
    0.5214   -1.8604   -9.4925 Si  0  0  0  0  0  4  0  0  0  0  0  0
   -0.3331   -2.0342   -8.3034 H   0  0  0  0  0  0  0  0  0  0  0  0
   -0.4020   -1.2358  -10.4933 H   0  0  0  0  0  0  0  0  0  0  0  0
    1.1594   -3.7823  -10.2860 Si  0  0  0  0  0  4  0  0  0  0  0  0
    2.5023   -3.6699  -10.9226 H   0  0  0  0  0  0  0  0  0  0  0  0
    0.2498   -4.2341  -11.3510 H   0  0  0  0  0  0  0  0  0  0  0  0
    2.2951    0.4176  -10.2684 H   0  0  0  0  0  0  0  0  0  0  0  0
    1.4967    0.5998   -8.0919 H   0  0  0  0  0  0  0  0  0  0  0  0
   -0.6260   -6.6269   -6.7738 H   0  0  0  0  0  0  0  0  0  0  0  0
   -1.0124   -7.4779   -8.9417 H   0  0  0  0  0  0  0  0  0  0  0  0
   -3.6207   -5.5137   -8.7081 H   0  0  0  0  0  0  0  0  0  0  0  0
   -2.0723   -3.8666   -9.5377 H   0  0  0  0  0  0  0  0  0  0  0  0
    3.6277   -3.1081   -3.9899 H   0  0  0  0  0  0  0  0  0  0  0  0
    2.0321   -3.9769   -5.4280 H   0  0  0  0  0  0  0  0  0  0  0  0
  1  2  1  0
  1  5  1  0
  2  3  1  0
  2  4  1  0
  2 11  1  0
  5  6  1  0
  5  7  1  0
  5  8  1  0
  8  9  1  0
  8 36  1  0
  8 37  1  0
  9 14  1  0
  9 18  1  0
  9 19  1  0
 10 11  1  0
 10 15  1  0
 10 34  1  0
 10 35  1  0
 11 12  1  0
 11 13  1  0
 14 16  1  0
 14 20  1  0
 14 21  1  0
 15 17  1  0
 15 32  1  0
 15 33  1  0
 16 24  1  0
 16 30  1  0
 16 31  1  0
 17 22  1  0
 17 23  1  0
 17 27  1  0
 24 25  1  0
 24 26  1  0
 24 27  1  0
 27 28  1  0
 27 29  1  0
M  CHG  1   1   1
M  RAD  1   1   2
M  END
$$$$

     RDKit          3D

 37 37  0  0  0  0  0  0  0  0999 V2000
   -0.4003   -1.6418   -4.5215 S   0  0  0  0  0  2  0  0  0  0  0  0
   -0.0195   -0.7404   -6.3966 Si  0  0  0  0  0  4  0  0  0  0  0  0
    0.9757   -1.4284   -7.1985 H   0  0  0  0  0  0  0  0  0  0  0  0
    0.4679    0.6461   -6.1458 H   0  0  0  0  0  0  0  0  0  0  0  0
    0.7763   -3.3527   -4.1386 Si  0  0  0  0  0  4  0  0  0  0  0  0
    0.4647   -4.3750   -5.1707 H   0  0  0  0  0  0  0  0  0  0  0  0
    0.4218   -3.9079   -2.8399 H   0  0  0  0  0  0  0  0  0  0  0  0
    2.9561   -2.9500   -4.1608 Si  0  0  0  0  0  4  0  0  0  0  0  0
    3.6937   -2.2454   -6.1107 Si  0  0  0  0  0  4  0  0  0  0  0  0
   -2.1116   -2.3058   -9.0002 Si  0  0  0  0  0  4  0  0  0  0  0  0
   -1.8770   -0.5483   -7.6377 Si  0  0  0  0  0  4  0  0  0  0  0  0
   -3.0625   -0.3424   -6.8118 H   0  0  0  0  0  0  0  0  0  0  0  0
   -1.7070    0.6445   -8.5147 H   0  0  0  0  0  0  0  0  0  0  0  0
    5.8844   -2.7254   -6.3521 Si  0  0  0  0  0  4  0  0  0  0  0  0
   -0.4730   -3.7526   -8.6679 Si  0  0  0  0  0  4  0  0  0  0  0  0
    6.2375   -3.9564   -8.1595 Si  0  0  0  0  0  4  0  0  0  0  0  0
    1.1317   -3.5619  -10.2290 Si  0  0  0  0  0  4  0  0  0  0  0  0
    3.5691   -0.7619   -6.1461 H   0  0  0  0  0  0  0  0  0  0  0  0
    2.9682   -2.7656   -7.2513 H   0  0  0  0  0  0  0  0  0  0  0  0
    6.3031   -3.5290   -5.1735 H   0  0  0  0  0  0  0  0  0  0  0  0
    6.6914   -1.5052   -6.3470 H   0  0  0  0  0  0  0  0  0  0  0  0
    1.5008   -2.1327  -10.2848 H   0  0  0  0  0  0  0  0  0  0  0  0
    0.6844   -4.0510  -11.5181 H   0  0  0  0  0  0  0  0  0  0  0  0
    4.7919   -3.5331   -9.7811 Si  0  0  0  0  0  4  0  0  0  0  0  0
    5.3871   -3.9991  -11.0628 H   0  0  0  0  0  0  0  0  0  0  0  0
    4.5120   -2.0883   -9.8499 H   0  0  0  0  0  0  0  0  0  0  0  0
    2.9115   -4.7044   -9.4819 Si  0  0  0  0  0  4  0  0  0  0  0  0
    2.9507   -5.9872  -10.2004 H   0  0  0  0  0  0  0  0  0  0  0  0
    2.7823   -5.0206   -8.0518 H   0  0  0  0  0  0  0  0  0  0  0  0
    7.5972   -3.6387   -8.6668 H   0  0  0  0  0  0  0  0  0  0  0  0
    6.2550   -5.4055   -7.8573 H   0  0  0  0  0  0  0  0  0  0  0  0
   -0.9474   -5.1424   -8.5735 H   0  0  0  0  0  0  0  0  0  0  0  0
    0.1725   -3.4349   -7.3825 H   0  0  0  0  0  0  0  0  0  0  0  0
   -2.2192   -1.9135  -10.3962 H   0  0  0  0  0  0  0  0  0  0  0  0
   -3.3879   -2.9722   -8.6364 H   0  0  0  0  0  0  0  0  0  0  0  0
    3.3094   -2.0139   -3.0923 H   0  0  0  0  0  0  0  0  0  0  0  0
    3.6399   -4.2287   -3.8434 H   0  0  0  0  0  0  0  0  0  0  0  0
  1  2  1  0
  1  5  1  0
  2  3  1  0
  2  4  1  0
  2 11  1  0
  5  6  1  0
  5  7  1  0
  5  8  1  0
  8  9  1  0
  8 36  1  0
  8 37  1  0
  9 14  1  0
  9 18  1  0
  9 19  1  0
 10 11  1  0
 10 15  1  0
 10 34  1  0
 10 35  1  0
 11 12  1  0
 11 13  1  0
 14 16  1  0
 14 20  1  0
 14 21  1  0
 15 17  1  0
 15 32  1  0
 15 33  1  0
 16 24  1  0
 16 30  1  0
 16 31  1  0
 17 22  1  0
 17 23  1  0
 17 27  1  0
 24 25  1  0
 24 26  1  0
 24 27  1  0
 27 28  1  0
 27 29  1  0
M  CHG  1   1   1
M  RAD  1   1   2
M  END
$$$$

     RDKit          3D

 37 37  0  0  0  0  0  0  0  0999 V2000
   -0.4003   -1.6418   -4.5215 S   0  0  0  0  0  2  0  0  0  0  0  0
    1.4799   -2.3538   -4.8144 Si  0  0  0  0  0  4  0  0  0  0  0  0
    2.4120   -1.8488   -3.7606 H   0  0  0  0  0  0  0  0  0  0  0  0
    1.5075   -3.8381   -4.6287 H   0  0  0  0  0  0  0  0  0  0  0  0
   -1.1413    0.0443   -5.4538 Si  0  0  0  0  0  4  0  0  0  0  0  0
   -0.4067    1.2443   -4.9571 H   0  0  0  0  0  0  0  0  0  0  0  0
   -2.5364    0.2544   -5.0193 H   0  0  0  0  0  0  0  0  0  0  0  0
   -1.1324    0.0743   -7.6539 Si  0  0  0  0  0  4  0  0  0  0  0  0
   -2.8850   -0.8816   -8.5911 Si  0  0  0  0  0  4  0  0  0  0  0  0
    1.7472   -3.3412   -8.3624 Si  0  0  0  0  0  4  0  0  0  0  0  0
    2.4663   -1.9740   -6.7590 Si  0  0  0  0  0  4  0  0  0  0  0  0
    2.3809   -0.5708   -7.1508 H   0  0  0  0  0  0  0  0  0  0  0  0
    3.9007   -2.2695   -6.5792 H   0  0  0  0  0  0  0  0  0  0  0  0
   -3.9137   -2.3357   -7.2830 Si  0  0  0  0  0  4  0  0  0  0  0  0
    1.0848   -5.2949   -7.5795 Si  0  0  0  0  0  4  0  0  0  0  0  0
   -2.4979   -3.7348   -6.3230 Si  0  0  0  0  0  4  0  0  0  0  0  0
   -0.0521   -6.3868   -9.1563 Si  0  0  0  0  0  4  0  0  0  0  0  0
   -2.4886   -1.6021   -9.8360 H   0  0  0  0  0  0  0  0  0  0  0  0
   -3.8948    0.1206   -9.0379 H   0  0  0  0  0  0  0  0  0  0  0  0
   -4.8400   -3.1315   -8.1263 H   0  0  0  0  0  0  0  0  0  0  0  0
   -4.7285   -1.6002   -6.3129 H   0  0  0  0  0  0  0  0  0  0  0  0
    0.3297   -7.8135   -9.2115 H   0  0  0  0  0  0  0  0  0  0  0  0
    0.3395   -5.8175  -10.4774 H   0  0  0  0  0  0  0  0  0  0  0  0
   -2.8947   -5.8644   -6.8645 Si  0  0  0  0  0  4  0  0  0  0  0  0
   -4.2908   -6.2334   -6.6723 H   0  0  0  0  0  0  0  0  0  0  0  0
   -2.0208   -6.6880   -5.9801 H   0  0  0  0  0  0  0  0  0  0  0  0
   -2.2304   -6.1988   -8.9459 Si  0  0  0  0  0  4  0  0  0  0  0  0
   -2.7933   -5.1008   -9.7823 H   0  0  0  0  0  0  0  0  0  0  0  0
   -2.8948   -7.4372   -9.4403 H   0  0  0  0  0  0  0  0  0  0  0  0
   -1.1640   -3.4238   -6.8108 H   0  0  0  0  0  0  0  0  0  0  0  0
   -2.6285   -3.6249   -4.8716 H   0  0  0  0  0  0  0  0  0  0  0  0
    2.3094   -6.1016   -7.3000 H   0  0  0  0  0  0  0  0  0  0  0  0
    0.3595   -5.2136   -6.3225 H   0  0  0  0  0  0  0  0  0  0  0  0
    0.6216   -2.6863   -9.0436 H   0  0  0  0  0  0  0  0  0  0  0  0
    2.8318   -3.5685   -9.3540 H   0  0  0  0  0  0  0  0  0  0  0  0
    0.0851   -0.4896   -8.2395 H   0  0  0  0  0  0  0  0  0  0  0  0
   -1.1406    1.5051   -8.0817 H   0  0  0  0  0  0  0  0  0  0  0  0
  1  2  1  0
  1  5  1  0
  2  3  1  0
  2  4  1  0
  2 11  1  0
  5  6  1  0
  5  7  1  0
  5  8  1  0
  8  9  1  0
  8 36  1  0
  8 37  1  0
  9 14  1  0
  9 18  1  0
  9 19  1  0
 10 11  1  0
 10 15  1  0
 10 34  1  0
 10 35  1  0
 11 12  1  0
 11 13  1  0
 14 16  1  0
 14 20  1  0
 14 21  1  0
 15 17  1  0
 15 32  1  0
 15 33  1  0
 16 24  1  0
 16 30  1  0
 16 31  1  0
 17 22  1  0
 17 23  1  0
 17 27  1  0
 24 25  1  0
 24 26  1  0
 24 27  1  0
 27 28  1  0
 27 29  1  0
M  CHG  1   1   1
M  RAD  1   1   2
M  END
$$$$

     RDKit          3D

 37 37  0  0  0  0  0  0  0  0999 V2000
   -0.4003   -1.6418   -4.5215 S   0  0  0  0  0  2  0  0  0  0  0  0
    1.6999   -1.8108   -4.2808 Si  0  0  0  0  0  4  0  0  0  0  0  0
    2.0865   -0.9130   -3.1639 H   0  0  0  0  0  0  0  0  0  0  0  0
    2.4488   -1.3088   -5.4641 H   0  0  0  0  0  0  0  0  0  0  0  0
   -1.2196   -2.9577   -5.9504 Si  0  0  0  0  0  4  0  0  0  0  0  0
   -0.6719   -4.3148   -5.8984 H   0  0  0  0  0  0  0  0  0  0  0  0
   -2.6798   -3.0912   -5.6700 H   0  0  0  0  0  0  0  0  0  0  0  0
   -1.1006   -2.1234   -8.0379 Si  0  0  0  0  0  4  0  0  0  0  0  0
   -1.2885   -3.7935   -9.5375 Si  0  0  0  0  0  4  0  0  0  0  0  0
    3.2177   -4.9175   -5.5303 Si  0  0  0  0  0  4  0  0  0  0  0  0
    2.3559   -3.8602   -3.7512 Si  0  0  0  0  0  4  0  0  0  0  0  0
    1.2804   -4.6551   -3.1293 H   0  0  0  0  0  0  0  0  0  0  0  0
    3.4449   -3.7965   -2.7334 H   0  0  0  0  0  0  0  0  0  0  0  0
   -0.8528   -3.0139  -11.5611 Si  0  0  0  0  0  4  0  0  0  0  0  0
    2.6827   -3.8262   -7.3698 Si  0  0  0  0  0  4  0  0  0  0  0  0
    1.2403   -3.3728  -12.1898 Si  0  0  0  0  0  4  0  0  0  0  0  0
    4.4073   -3.3991   -8.6744 Si  0  0  0  0  0  4  0  0  0  0  0  0
   -0.4643   -4.9286   -9.1728 H   0  0  0  0  0  0  0  0  0  0  0  0
   -2.7022   -4.2534   -9.5142 H   0  0  0  0  0  0  0  0  0  0  0  0
   -1.0974   -1.5539  -11.5660 H   0  0  0  0  0  0  0  0  0  0  0  0
   -1.7909   -3.5866  -12.5508 H   0  0  0  0  0  0  0  0  0  0  0  0
    5.6850   -3.6282   -7.9979 H   0  0  0  0  0  0  0  0  0  0  0  0
    4.4093   -1.9673   -9.0905 H   0  0  0  0  0  0  0  0  0  0  0  0
    2.1722   -5.0684  -11.0877 Si  0  0  0  0  0  4  0  0  0  0  0  0
    2.1988   -6.2346  -12.0151 H   0  0  0  0  0  0  0  0  0  0  0  0
    1.3644   -5.4677   -9.9428 H   0  0  0  0  0  0  0  0  0  0  0  0
    4.2747   -4.6054  -10.5486 Si  0  0  0  0  0  4  0  0  0  0  0  0
    5.0218   -5.8446  -10.3927 H   0  0  0  0  0  0  0  0  0  0  0  0
    4.8630   -3.8397  -11.6827 H   0  0  0  0  0  0  0  0  0  0  0  0
    2.0549   -2.1781  -11.9542 H   0  0  0  0  0  0  0  0  0  0  0  0
    1.2614   -3.6310  -13.6535 H   0  0  0  0  0  0  0  0  0  0  0  0
    1.6699   -4.6160   -8.1120 H   0  0  0  0  0  0  0  0  0  0  0  0
    2.0131   -2.5471   -7.0256 H   0  0  0  0  0  0  0  0  0  0  0  0
    2.6383   -6.2910   -5.5422 H   0  0  0  0  0  0  0  0  0  0  0  0
    4.6630   -5.0813   -5.4178 H   0  0  0  0  0  0  0  0  0  0  0  0
   -2.1865   -1.1949   -8.2854 H   0  0  0  0  0  0  0  0  0  0  0  0
    0.2091   -1.4643   -8.1994 H   0  0  0  0  0  0  0  0  0  0  0  0
  1  2  1  0
  1  5  1  0
  2  3  1  0
  2  4  1  0
  2 11  1  0
  5  6  1  0
  5  7  1  0
  5  8  1  0
  8  9  1  0
  8 36  1  0
  8 37  1  0
  9 14  1  0
  9 18  1  0
  9 19  1  0
 10 11  1  0
 10 15  1  0
 10 34  1  0
 10 35  1  0
 11 12  1  0
 11 13  1  0
 14 16  1  0
 14 20  1  0
 14 21  1  0
 15 17  1  0
 15 32  1  0
 15 33  1  0
 16 24  1  0
 16 30  1  0
 16 31  1  0
 17 22  1  0
 17 23  1  0
 17 27  1  0
 24 25  1  0
 24 26  1  0
 24 27  1  0
 27 28  1  0
 27 29  1  0
M  CHG  1   1   1
M  RAD  1   1   2
M  END
$$$$

     RDKit          3D

 37 37  0  0  0  0  0  0  0  0999 V2000
   -0.4003   -1.6418   -4.5215 S   0  0  0  0  0  2  0  0  0  0  0  0
   -0.7867   -3.5569   -5.4281 Si  0  0  0  0  0  4  0  0  0  0  0  0
   -2.1818   -3.5703   -5.8446 H   0  0  0  0  0  0  0  0  0  0  0  0
    0.1583   -3.7165   -6.5272 H   0  0  0  0  0  0  0  0  0  0  0  0
   -0.5674   -0.0846   -5.9828 Si  0  0  0  0  0  4  0  0  0  0  0  0
    0.7370    0.1581   -6.6327 H   0  0  0  0  0  0  0  0  0  0  0  0
   -0.9011    1.1593   -5.2566 H   0  0  0  0  0  0  0  0  0  0  0  0
   -2.1612   -0.4732   -7.4577 Si  0  0  0  0  0  4  0  0  0  0  0  0
   -1.6403   -2.1188   -8.8561 Si  0  0  0  0  0  4  0  0  0  0  0  0
    1.7131   -5.3730   -3.5268 Si  0  0  0  0  0  4  0  0  0  0  0  0
   -0.4736   -5.1730   -3.9406 Si  0  0  0  0  0  4  0  0  0  0  0  0
   -1.0076   -6.4456   -4.4588 H   0  0  0  0  0  0  0  0  0  0  0  0
   -1.1482   -4.8622   -2.6655 H   0  0  0  0  0  0  0  0  0  0  0  0
    0.2018   -1.7074  -10.0078 Si  0  0  0  0  0  4  0  0  0  0  0  0
    2.8382   -5.5703   -5.4416 Si  0  0  0  0  0  4  0  0  0  0  0  0
    1.8494   -3.1319   -9.4846 Si  0  0  0  0  0  4  0  0  0  0  0  0
    4.4031   -4.0000   -5.6171 Si  0  0  0  0  0  4  0  0  0  0  0  0
   -2.7666   -2.2441   -9.8234 H   0  0  0  0  0  0  0  0  0  0  0  0
   -1.5744   -3.4258   -8.1620 H   0  0  0  0  0  0  0  0  0  0  0  0
   -0.0393   -1.8254  -11.4745 H   0  0  0  0  0  0  0  0  0  0  0  0
    0.7052   -0.3414   -9.7934 H   0  0  0  0  0  0  0  0  0  0  0  0
    4.9802   -3.7777   -4.2902 H   0  0  0  0  0  0  0  0  0  0  0  0
    5.4921   -4.4306   -6.5054 H   0  0  0  0  0  0  0  0  0  0  0  0
    3.5997   -2.0202   -8.6202 Si  0  0  0  0  0  4  0  0  0  0  0  0
    3.4410   -0.6051   -9.0402 H   0  0  0  0  0  0  0  0  0  0  0  0
    4.8626   -2.4875   -9.1754 H   0  0  0  0  0  0  0  0  0  0  0  0
    3.5892   -2.0898   -6.4050 Si  0  0  0  0  0  4  0  0  0  0  0  0
    2.2512   -1.8100   -5.9172 H   0  0  0  0  0  0  0  0  0  0  0  0
    4.4721   -0.9986   -5.9185 H   0  0  0  0  0  0  0  0  0  0  0  0
    2.3572   -3.8230  -10.6959 H   0  0  0  0  0  0  0  0  0  0  0  0
    1.4008   -4.1690   -8.5643 H   0  0  0  0  0  0  0  0  0  0  0  0
    3.5275   -6.8858   -5.4339 H   0  0  0  0  0  0  0  0  0  0  0  0
    1.9332   -5.5870   -6.6018 H   0  0  0  0  0  0  0  0  0  0  0  0
    2.1919   -4.1763   -2.8417 H   0  0  0  0  0  0  0  0  0  0  0  0
    1.9001   -6.5273   -2.6507 H   0  0  0  0  0  0  0  0  0  0  0  0
   -2.4096    0.7365   -8.2276 H   0  0  0  0  0  0  0  0  0  0  0  0
   -3.3881   -0.8397   -6.7549 H   0  0  0  0  0  0  0  0  0  0  0  0
  1  2  1  0
  1  5  1  0
  2  3  1  0
  2  4  1  0
  2 11  1  0
  5  6  1  0
  5  7  1  0
  5  8  1  0
  8  9  1  0
  8 36  1  0
  8 37  1  0
  9 14  1  0
  9 18  1  0
  9 19  1  0
 10 11  1  0
 10 15  1  0
 10 34  1  0
 10 35  1  0
 11 12  1  0
 11 13  1  0
 14 16  1  0
 14 20  1  0
 14 21  1  0
 15 17  1  0
 15 32  1  0
 15 33  1  0
 16 24  1  0
 16 30  1  0
 16 31  1  0
 17 22  1  0
 17 23  1  0
 17 27  1  0
 24 25  1  0
 24 26  1  0
 24 27  1  0
 27 28  1  0
 27 29  1  0
M  CHG  1   1   1
M  RAD  1   1   2
M  END
$$$$

     RDKit          3D

 37 37  0  0  0  0  0  0  0  0999 V2000
   -0.4003   -1.6418   -4.5215 S   0  0  0  0  0  2  0  0  0  0  0  0
    0.6843   -1.0047   -6.2219 Si  0  0  0  0  0  4  0  0  0  0  0  0
    1.2714   -2.0843   -6.9943 H   0  0  0  0  0  0  0  0  0  0  0  0
    1.7882   -0.1189   -5.7535 H   0  0  0  0  0  0  0  0  0  0  0  0
   -0.3876   -3.7331   -4.2313 Si  0  0  0  0  0  4  0  0  0  0  0  0
   -1.0313   -4.3724   -5.4078 H   0  0  0  0  0  0  0  0  0  0  0  0
   -1.1776   -4.0671   -3.0544 H   0  0  0  0  0  0  0  0  0  0  0  0
    1.6460   -4.5784   -3.9770 Si  0  0  0  0  0  4  0  0  0  0  0  0
    2.9347   -4.2965   -5.7383 Si  0  0  0  0  0  4  0  0  0  0  0  0
   -1.4897   -1.0584   -9.2013 Si  0  0  0  0  0  4  0  0  0  0  0  0
   -0.5704    0.2235   -7.6165 Si  0  0  0  0  0  4  0  0  0  0  0  0
   -1.5759    1.0012   -6.8994 H   0  0  0  0  0  0  0  0  0  0  0  0
    0.3397    1.1725   -8.3179 H   0  0  0  0  0  0  0  0  0  0  0  0
    4.5423   -5.8774   -5.8076 Si  0  0  0  0  0  4  0  0  0  0  0  0
   -0.9440   -3.1769   -8.8806 Si  0  0  0  0  0  4  0  0  0  0  0  0
    4.4607   -7.0161   -7.7059 Si  0  0  0  0  0  4  0  0  0  0  0  0
    0.7345   -3.8151  -10.2310 Si  0  0  0  0  0  4  0  0  0  0  0  0
    3.6244   -2.9835   -5.6041 H   0  0  0  0  0  0  0  0  0  0  0  0
    2.2294   -4.2849   -7.0033 H   0  0  0  0  0  0  0  0  0  0  0  0
    4.2829   -6.8339   -4.6995 H   0  0  0  0  0  0  0  0  0  0  0  0
    5.8620   -5.2929   -5.5688 H   0  0  0  0  0  0  0  0  0  0  0  0
    1.8098   -2.8148  -10.0722 H   0  0  0  0  0  0  0  0  0  0  0  0
    0.3004   -3.9216  -11.6098 H   0  0  0  0  0  0  0  0  0  0  0  0
    3.7306   -5.7999   -9.4047 Si  0  0  0  0  0  4  0  0  0  0  0  0
    4.1763   -6.4535  -10.6650 H   0  0  0  0  0  0  0  0  0  0  0  0
    4.2754   -4.4333   -9.3243 H   0  0  0  0  0  0  0  0  0  0  0  0
    1.4957   -5.7746   -9.4487 Si  0  0  0  0  0  4  0  0  0  0  0  0
    0.9575   -6.8376  -10.3113 H   0  0  0  0  0  0  0  0  0  0  0  0
    1.0001   -6.0368   -8.0895 H   0  0  0  0  0  0  0  0  0  0  0  0
    5.8404   -7.4644   -8.0261 H   0  0  0  0  0  0  0  0  0  0  0  0
    3.6592   -8.2547   -7.5837 H   0  0  0  0  0  0  0  0  0  0  0  0
   -2.0920   -4.0888   -9.0074 H   0  0  0  0  0  0  0  0  0  0  0  0
   -0.4352   -3.3216   -7.5058 H   0  0  0  0  0  0  0  0  0  0  0  0
   -1.1561   -0.6053  -10.5422 H   0  0  0  0  0  0  0  0  0  0  0  0
   -2.9630   -0.9410   -9.0568 H   0  0  0  0  0  0  0  0  0  0  0  0
    2.2731   -4.0357   -2.7708 H   0  0  0  0  0  0  0  0  0  0  0  0
    1.4877   -6.0366   -3.7496 H   0  0  0  0  0  0  0  0  0  0  0  0
  1  2  1  0
  1  5  1  0
  2  3  1  0
  2  4  1  0
  2 11  1  0
  5  6  1  0
  5  7  1  0
  5  8  1  0
  8  9  1  0
  8 36  1  0
  8 37  1  0
  9 14  1  0
  9 18  1  0
  9 19  1  0
 10 11  1  0
 10 15  1  0
 10 34  1  0
 10 35  1  0
 11 12  1  0
 11 13  1  0
 14 16  1  0
 14 20  1  0
 14 21  1  0
 15 17  1  0
 15 32  1  0
 15 33  1  0
 16 24  1  0
 16 30  1  0
 16 31  1  0
 17 22  1  0
 17 23  1  0
 17 27  1  0
 24 25  1  0
 24 26  1  0
 24 27  1  0
 27 28  1  0
 27 29  1  0
M  CHG  1   1   1
M  RAD  1   1   2
M  END
$$$$
