
     RDKit          3D

 37 37  0  0  0  0  0  0  0  0999 V2000
   -0.0995   -0.1809    3.1865 S   0  0  0  0  0  2  0  0  0  0  0  0
   -0.0120   -2.1862    4.0055 Si  0  0  0  0  0  4  0  0  0  0  0  0
   -0.7855   -3.0362    3.0557 H   0  0  0  0  0  0  0  0  0  0  0  0
    1.3581   -2.6938    3.9909 H   0  0  0  0  0  0  0  0  0  0  0  0
    1.1245    1.1339    4.4010 Si  0  0  0  0  0  4  0  0  0  0  0  0
    0.2135    2.1983    4.9079 H   0  0  0  0  0  0  0  0  0  0  0  0
    2.2025    1.7198    3.6103 H   0  0  0  0  0  0  0  0  0  0  0  0
    1.9438   -0.0004    6.1092 Si  0  0  0  0  0  4  0  0  0  0  0  0
    4.0704    0.5185    6.5350 Si  0  0  0  0  0  4  0  0  0  0  0  0
    0.0988   -3.6540    7.3880 Si  0  0  0  0  0  4  0  0  0  0  0  0
   -0.9680   -2.2851    5.9941 Si  0  0  0  0  0  4  0  0  0  0  0  0
   -1.0229   -0.9094    6.5454 H   0  0  0  0  0  0  0  0  0  0  0  0
   -2.3511   -2.7639    5.8573 H   0  0  0  0  0  0  0  0  0  0  0  0
    5.4436   -1.1491    6.0120 Si  0  0  0  0  0  4  0  0  0  0  0  0
   -0.0488   -2.8324    9.4490 Si  0  0  0  0  0  4  0  0  0  0  0  0
    6.5035   -1.9738    7.7510 Si  0  0  0  0  0  4  0  0  0  0  0  0
    1.8215   -1.7905   10.0654 Si  0  0  0  0  0  4  0  0  0  0  0  0
    4.4070    1.7591    5.7980 H   0  0  0  0  0  0  0  0  0  0  0  0
    4.1566    0.8547    7.9828 H   0  0  0  0  0  0  0  0  0  0  0  0
    4.6095   -2.2316    5.4157 H   0  0  0  0  0  0  0  0  0  0  0  0
    6.3848   -0.7496    4.9342 H   0  0  0  0  0  0  0  0  0  0  0  0
    2.0063   -0.5240    9.3779 H   0  0  0  0  0  0  0  0  0  0  0  0
    1.7015   -1.4969   11.5132 H   0  0  0  0  0  0  0  0  0  0  0  0
    5.4058   -1.7218    9.6558 Si  0  0  0  0  0  4  0  0  0  0  0  0
    6.3293   -2.1082   10.7597 H   0  0  0  0  0  0  0  0  0  0  0  0
    5.0528   -0.3163    9.9009 H   0  0  0  0  0  0  0  0  0  0  0  0
    3.6181   -3.0581    9.7775 Si  0  0  0  0  0  4  0  0  0  0  0  0
    3.7130   -3.9680   10.9523 H   0  0  0  0  0  0  0  0  0  0  0  0
    3.5161   -3.9203    8.5991 H   0  0  0  0  0  0  0  0  0  0  0  0
    7.8419   -1.3876    7.8767 H   0  0  0  0  0  0  0  0  0  0  0  0
    6.7076   -3.4311    7.5372 H   0  0  0  0  0  0  0  0  0  0  0  0
   -1.1421   -1.8279    9.5047 H   0  0  0  0  0  0  0  0  0  0  0  0
   -0.3815   -3.8714   10.4122 H   0  0  0  0  0  0  0  0  0  0  0  0
   -0.3667   -5.0265    7.2935 H   0  0  0  0  0  0  0  0  0  0  0  0
    1.5427   -3.6407    7.0164 H   0  0  0  0  0  0  0  0  0  0  0  0
    1.9218   -1.4461    5.7478 H   0  0  0  0  0  0  0  0  0  0  0  0
    1.0817    0.2177    7.2914 H   0  0  0  0  0  0  0  0  0  0  0  0
  1  2  1  0
  1  5  1  0
  2  3  1  0
  2  4  1  0
  2 11  1  0
  5  6  1  0
  5  7  1  0
  5  8  1  0
  8  9  1  0
  8 36  1  0
  8 37  1  0
  9 14  1  0
  9 18  1  0
  9 19  1  0
 10 11  1  0
 10 15  1  0
 10 34  1  0
 10 35  1  0
 11 12  1  0
 11 13  1  0
 14 16  1  0
 14 20  1  0
 14 21  1  0
 15 17  1  0
 15 32  1  0
 15 33  1  0
 16 24  1  0
 16 30  1  0
 16 31  1  0
 17 22  1  0
 17 23  1  0
 17 27  1  0
 24 25  1  0
 24 26  1  0
 24 27  1  0
 27 28  1  0
 27 29  1  0
M  CHG  1   1   1
M  RAD  1   1   2
M  END
$$$$

     RDKit          3D

 37 37  0  0  0  0  0  0  0  0999 V2000
   -0.0995   -0.1809    3.1865 S   0  0  0  0  0  2  0  0  0  0  0  0
    0.0931   -1.3351    4.9649 Si  0  0  0  0  0  4  0  0  0  0  0  0
   -0.3508   -2.7202    4.6463 H   0  0  0  0  0  0  0  0  0  0  0  0
    1.4840   -1.4501    5.4204 H   0  0  0  0  0  0  0  0  0  0  0  0
    1.1654    1.5270    3.1683 Si  0  0  0  0  0  4  0  0  0  0  0  0
    1.8114    1.5978    1.8291 H   0  0  0  0  0  0  0  0  0  0  0  0
    0.3993    2.7729    3.3198 H   0  0  0  0  0  0  0  0  0  0  0  0
    2.7728    1.3354    4.6793 Si  0  0  0  0  0  4  0  0  0  0  0  0
    3.1490    3.2860    5.7335 Si  0  0  0  0  0  4  0  0  0  0  0  0
   -1.5171    1.6641    6.1731 Si  0  0  0  0  0  4  0  0  0  0  0  0
   -1.2115   -0.4877    6.5923 Si  0  0  0  0  0  4  0  0  0  0  0  0
   -0.6313   -0.7409    7.9091 H   0  0  0  0  0  0  0  0  0  0  0  0
   -2.5114   -1.1716    6.5050 H   0  0  0  0  0  0  0  0  0  0  0  0
    4.5133    2.8275    7.4675 Si  0  0  0  0  0  4  0  0  0  0  0  0
   -1.9934    2.8374    7.9845 Si  0  0  0  0  0  4  0  0  0  0  0  0
    3.9857    0.8862    8.3964 Si  0  0  0  0  0  4  0  0  0  0  0  0
   -0.9233    2.1340    9.7824 Si  0  0  0  0  0  4  0  0  0  0  0  0
    3.7831    4.2518    4.8269 H   0  0  0  0  0  0  0  0  0  0  0  0
    1.8627    3.7569    6.2471 H   0  0  0  0  0  0  0  0  0  0  0  0
    4.5305    3.9334    8.4120 H   0  0  0  0  0  0  0  0  0  0  0  0
    5.8770    2.6944    6.8929 H   0  0  0  0  0  0  0  0  0  0  0  0
   -0.9923    0.6710    9.9464 H   0  0  0  0  0  0  0  0  0  0  0  0
   -1.6097    2.7056   10.9749 H   0  0  0  0  0  0  0  0  0  0  0  0
    2.5583    1.0915   10.0660 Si  0  0  0  0  0  4  0  0  0  0  0  0
    1.7554   -0.1557   10.1676 H   0  0  0  0  0  0  0  0  0  0  0  0
    3.3351    1.1651   11.3297 H   0  0  0  0  0  0  0  0  0  0  0  0
    1.1989    2.8315    9.8297 Si  0  0  0  0  0  4  0  0  0  0  0  0
    1.5095    3.6127    8.6278 H   0  0  0  0  0  0  0  0  0  0  0  0
    1.4363    3.7375   10.9858 H   0  0  0  0  0  0  0  0  0  0  0  0
    5.2310    0.2508    8.8930 H   0  0  0  0  0  0  0  0  0  0  0  0
    3.4327   -0.0113    7.3840 H   0  0  0  0  0  0  0  0  0  0  0  0
   -3.4414    2.8085    8.2363 H   0  0  0  0  0  0  0  0  0  0  0  0
   -1.6115    4.2434    7.7377 H   0  0  0  0  0  0  0  0  0  0  0  0
   -2.6185    1.8216    5.1914 H   0  0  0  0  0  0  0  0  0  0  0  0
   -0.3040    2.2381    5.5538 H   0  0  0  0  0  0  0  0  0  0  0  0
    4.0258    0.8478    4.0621 H   0  0  0  0  0  0  0  0  0  0  0  0
    2.3427    0.3784    5.7037 H   0  0  0  0  0  0  0  0  0  0  0  0
  1  2  1  0
  1  5  1  0
  2  3  1  0
  2  4  1  0
  2 11  1  0
  5  6  1  0
  5  7  1  0
  5  8  1  0
  8  9  1  0
  8 36  1  0
  8 37  1  0
  9 14  1  0
  9 18  1  0
  9 19  1  0
 10 11  1  0
 10 15  1  0
 10 34  1  0
 10 35  1  0
 11 12  1  0
 11 13  1  0
 14 16  1  0
 14 20  1  0
 14 21  1  0
 15 17  1  0
 15 32  1  0
 15 33  1  0
 16 24  1  0
 16 30  1  0
 16 31  1  0
 17 22  1  0
 17 23  1  0
 17 27  1  0
 24 25  1  0
 24 26  1  0
 24 27  1  0
 27 28  1  0
 27 29  1  0
M  CHG  1   1   1
M  RAD  1   1   2
M  END
$$$$

     RDKit          3D

 37 37  0  0  0  0  0  0  0  0999 V2000
   -0.0995   -0.1809    3.1865 S   0  0  0  0  0  2  0  0  0  0  0  0
   -0.0293   -2.1870    4.0052 Si  0  0  0  0  0  4  0  0  0  0  0  0
   -0.8103   -3.0302    3.0554 H   0  0  0  0  0  0  0  0  0  0  0  0
    1.3363   -2.7065    3.9901 H   0  0  0  0  0  0  0  0  0  0  0  0
    1.1362    1.1230    4.4009 Si  0  0  0  0  0  4  0  0  0  0  0  0
    0.2346    2.1953    4.9081 H   0  0  0  0  0  0  0  0  0  0  0  0
    2.2190    1.6996    3.6101 H   0  0  0  0  0  0  0  0  0  0  0  0
    1.9460   -0.0186    6.1088 Si  0  0  0  0  0  4  0  0  0  0  0  0
    4.0771    0.4817    6.5342 Si  0  0  0  0  0  4  0  0  0  0  0  0
    0.0696   -3.6563    7.3874 Si  0  0  0  0  0  4  0  0  0  0  0  0
   -0.9857   -2.2779    5.9940 Si  0  0  0  0  0  4  0  0  0  0  0  0
   -1.0285   -0.9018    6.5455 H   0  0  0  0  0  0  0  0  0  0  0  0
   -2.3729   -2.7446    5.8574 H   0  0  0  0  0  0  0  0  0  0  0  0
    5.4356   -1.1977    6.0106 Si  0  0  0  0  0  4  0  0  0  0  0  0
   -0.0704   -2.8337    9.4485 Si  0  0  0  0  0  4  0  0  0  0  0  0
    6.4887   -2.0318    7.7492 Si  0  0  0  0  0  4  0  0  0  0  0  0
    1.8091   -1.8083   10.0647 Si  0  0  0  0  0  4  0  0  0  0  0  0
    4.4243    1.7194    5.7973 H   0  0  0  0  0  0  0  0  0  0  0  0
    4.1666    0.8169    7.9820 H   0  0  0  0  0  0  0  0  0  0  0  0
    4.5920   -2.2728    5.4143 H   0  0  0  0  0  0  0  0  0  0  0  0
    6.3800   -0.8062    4.9326 H   0  0  0  0  0  0  0  0  0  0  0  0
    2.0046   -0.5432    9.3773 H   0  0  0  0  0  0  0  0  0  0  0  0
    1.6919   -1.5138   11.5126 H   0  0  0  0  0  0  0  0  0  0  0  0
    5.3937   -1.7706    9.6543 Si  0  0  0  0  0  4  0  0  0  0  0  0
    6.3140   -2.1652   10.7579 H   0  0  0  0  0  0  0  0  0  0  0  0
    5.0530   -0.3621    9.8996 H   0  0  0  0  0  0  0  0  0  0  0  0
    3.5944   -3.0914    9.7762 Si  0  0  0  0  0  4  0  0  0  0  0  0
    3.6817   -4.0022   10.9509 H   0  0  0  0  0  0  0  0  0  0  0  0
    3.4847   -3.9524    8.5977 H   0  0  0  0  0  0  0  0  0  0  0  0
    7.8322   -1.4573    7.8747 H   0  0  0  0  0  0  0  0  0  0  0  0
    6.6800   -3.4908    7.5351 H   0  0  0  0  0  0  0  0  0  0  0  0
   -1.1550   -1.8198    9.5047 H   0  0  0  0  0  0  0  0  0  0  0  0
   -0.4119   -3.8699   10.4117 H   0  0  0  0  0  0  0  0  0  0  0  0
   -0.4079   -5.0246    7.2928 H   0  0  0  0  0  0  0  0  0  0  0  0
    1.5135   -3.6554    7.0155 H   0  0  0  0  0  0  0  0  0  0  0  0
    1.9113   -1.4640    5.7471 H   0  0  0  0  0  0  0  0  0  0  0  0
    1.0860    0.2068    7.2912 H   0  0  0  0  0  0  0  0  0  0  0  0
  1  2  1  0
  1  5  1  0
  2  3  1  0
  2  4  1  0
  2 11  1  0
  5  6  1  0
  5  7  1  0
  5  8  1  0
  8  9  1  0
  8 36  1  0
  8 37  1  0
  9 14  1  0
  9 18  1  0
  9 19  1  0
 10 11  1  0
 10 15  1  0
 10 34  1  0
 10 35  1  0
 11 12  1  0
 11 13  1  0
 14 16  1  0
 14 20  1  0
 14 21  1  0
 15 17  1  0
 15 32  1  0
 15 33  1  0
 16 24  1  0
 16 30  1  0
 16 31  1  0
 17 22  1  0
 17 23  1  0
 17 27  1  0
 24 25  1  0
 24 26  1  0
 24 27  1  0
 27 28  1  0
 27 29  1  0
M  CHG  1   1   1
M  RAD  1   1   2
M  END
$$$$

     RDKit          3D

 37 37  0  0  0  0  0  0  0  0999 V2000
   -0.0995   -0.1809    3.1865 S   0  0  0  0  0  2  0  0  0  0  0  0
   -1.2114   -1.8579    3.9932 Si  0  0  0  0  0  4  0  0  0  0  0  0
   -2.3503   -2.0669    3.0539 H   0  0  0  0  0  0  0  0  0  0  0  0
   -0.4119   -3.0802    3.9495 H   0  0  0  0  0  0  0  0  0  0  0  0
    1.6812    0.1297    4.3841 Si  0  0  0  0  0  4  0  0  0  0  0  0
    1.5880    1.5191    4.9140 H   0  0  0  0  0  0  0  0  0  0  0  0
    2.8865   -0.0276    3.5760 H   0  0  0  0  0  0  0  0  0  0  0  0
    1.6866   -1.2960    6.0703 Si  0  0  0  0  0  4  0  0  0  0  0  0
    3.7100   -2.1494    6.4579 Si  0  0  0  0  0  4  0  0  0  0  0  0
   -1.9533   -3.1569    7.3651 Si  0  0  0  0  0  4  0  0  0  0  0  0
   -2.0143   -1.4004    5.9992 Si  0  0  0  0  0  4  0  0  0  0  0  0
   -1.2336   -0.2702    6.5586 H   0  0  0  0  0  0  0  0  0  0  0  0
   -3.4125   -0.9611    5.8865 H   0  0  0  0  0  0  0  0  0  0  0  0
    3.8160   -4.2983    5.8998 Si  0  0  0  0  0  4  0  0  0  0  0  0
   -1.5580   -2.4408    9.4329 Si  0  0  0  0  0  4  0  0  0  0  0  0
    4.1992   -5.6185    7.6138 Si  0  0  0  0  0  4  0  0  0  0  0  0
    0.5727   -2.7245   10.0187 Si  0  0  0  0  0  4  0  0  0  0  0  0
    4.7092   -1.3406    5.7211 H   0  0  0  0  0  0  0  0  0  0  0  0
    3.9971   -1.9531    7.9055 H   0  0  0  0  0  0  0  0  0  0  0  0
    2.4945   -4.6636    5.3141 H   0  0  0  0  0  0  0  0  0  0  0  0
    4.7969   -4.5197    4.8062 H   0  0  0  0  0  0  0  0  0  0  0  0
    1.4658   -1.8052    9.3344 H   0  0  0  0  0  0  0  0  0  0  0  0
    0.6687   -2.4397   11.4700 H   0  0  0  0  0  0  0  0  0  0  0  0
    3.4901   -4.7933    9.5407 Si  0  0  0  0  0  4  0  0  0  0  0  0
    4.0164   -5.6702   10.6245 H   0  0  0  0  0  0  0  0  0  0  0  0
    4.0450   -3.4572    9.7998 H   0  0  0  0  0  0  0  0  0  0  0  0
    1.2598   -4.8070    9.6897 Si  0  0  0  0  0  4  0  0  0  0  0  0
    0.8096   -5.6133   10.8577 H   0  0  0  0  0  0  0  0  0  0  0  0
    0.6506   -5.4212    8.5090 H   0  0  0  0  0  0  0  0  0  0  0  0
    5.6253   -5.9448    7.7169 H   0  0  0  0  0  0  0  0  0  0  0  0
    3.4942   -6.9082    7.3885 H   0  0  0  0  0  0  0  0  0  0  0  0
   -1.8391   -0.9842    9.5149 H   0  0  0  0  0  0  0  0  0  0  0  0
   -2.4313   -3.0935   10.3969 H   0  0  0  0  0  0  0  0  0  0  0  0
   -3.1447   -3.9823    7.2725 H   0  0  0  0  0  0  0  0  0  0  0  0
   -0.7891   -3.9987    6.9660 H   0  0  0  0  0  0  0  0  0  0  0  0
    0.8048   -2.4396    5.7018 H   0  0  0  0  0  0  0  0  0  0  0  0
    1.1377   -0.6267    7.2700 H   0  0  0  0  0  0  0  0  0  0  0  0
  1  2  1  0
  1  5  1  0
  2  3  1  0
  2  4  1  0
  2 11  1  0
  5  6  1  0
  5  7  1  0
  5  8  1  0
  8  9  1  0
  8 36  1  0
  8 37  1  0
  9 14  1  0
  9 18  1  0
  9 19  1  0
 10 11  1  0
 10 15  1  0
 10 34  1  0
 10 35  1  0
 11 12  1  0
 11 13  1  0
 14 16  1  0
 14 20  1  0
 14 21  1  0
 15 17  1  0
 15 32  1  0
 15 33  1  0
 16 24  1  0
 16 30  1  0
 16 31  1  0
 17 22  1  0
 17 23  1  0
 17 27  1  0
 24 25  1  0
 24 26  1  0
 24 27  1  0
 27 28  1  0
 27 29  1  0
M  CHG  1   1   1
M  RAD  1   1   2
M  END
$$$$
