
     RDKit          3D

 37 37  0  0  0  0  0  0  0  0999 V2000
   -1.5415    0.4262   -2.4716 S   0  0  0  0  0  2  0  0  0  0  0  0
   -0.2260    1.9677   -3.1239 Si  0  0  0  0  0  4  0  0  0  0  0  0
    0.6178    1.5638   -4.2431 H   0  0  0  0  0  0  0  0  0  0  0  0
    0.6333    2.3403   -1.9739 H   0  0  0  0  0  0  0  0  0  0  0  0
   -1.2552   -1.4036   -3.5038 Si  0  0  0  0  0  4  0  0  0  0  0  0
   -2.5709   -1.9596   -3.8661 H   0  0  0  0  0  0  0  0  0  0  0  0
   -0.6224   -2.3658   -2.5572 H   0  0  0  0  0  0  0  0  0  0  0  0
    0.0334   -1.1976   -5.2941 Si  0  0  0  0  0  4  0  0  0  0  0  0
   -0.5312   -2.7755   -6.7659 Si  0  0  0  0  0  4  0  0  0  0  0  0
   -3.5342    3.0930   -4.0801 Si  0  0  0  0  0  4  0  0  0  0  0  0
   -1.4348    3.7830   -3.6403 Si  0  0  0  0  0  4  0  0  0  0  0  0
   -0.8735    4.4373   -4.8363 H   0  0  0  0  0  0  0  0  0  0  0  0
   -1.4650    4.7174   -2.5113 H   0  0  0  0  0  0  0  0  0  0  0  0
   -1.1765   -1.9233   -8.7020 Si  0  0  0  0  0  4  0  0  0  0  0  0
   -4.6132    4.5411   -5.3450 Si  0  0  0  0  0  4  0  0  0  0  0  0
   -3.2467   -1.1028   -8.6196 Si  0  0  0  0  0  4  0  0  0  0  0  0
   -5.5216    3.6126   -7.1418 Si  0  0  0  0  0  4  0  0  0  0  0  0
    0.6369   -3.6636   -7.0331 H   0  0  0  0  0  0  0  0  0  0  0  0
   -1.5927   -3.6538   -6.2506 H   0  0  0  0  0  0  0  0  0  0  0  0
   -0.2496   -0.8968   -9.1737 H   0  0  0  0  0  0  0  0  0  0  0  0
   -1.1853   -3.0221   -9.7009 H   0  0  0  0  0  0  0  0  0  0  0  0
   -6.0546    4.7114   -7.9890 H   0  0  0  0  0  0  0  0  0  0  0  0
   -6.6412    2.7328   -6.8275 H   0  0  0  0  0  0  0  0  0  0  0  0
   -3.4100    0.6320   -7.2641 Si  0  0  0  0  0  4  0  0  0  0  0  0
   -2.1456    0.9363   -6.6045 H   0  0  0  0  0  0  0  0  0  0  0  0
   -4.4840    0.3357   -6.2739 H   0  0  0  0  0  0  0  0  0  0  0  0
   -4.0483    2.4876   -8.3507 Si  0  0  0  0  0  4  0  0  0  0  0  0
   -4.7051    2.0825   -9.6102 H   0  0  0  0  0  0  0  0  0  0  0  0
   -2.8897    3.3103   -8.7301 H   0  0  0  0  0  0  0  0  0  0  0  0
   -4.1406   -2.2103   -8.2171 H   0  0  0  0  0  0  0  0  0  0  0  0
   -3.6274   -0.7223   -9.9903 H   0  0  0  0  0  0  0  0  0  0  0  0
   -3.7148    5.6116   -5.7438 H   0  0  0  0  0  0  0  0  0  0  0  0
   -5.6998    5.1469   -4.5504 H   0  0  0  0  0  0  0  0  0  0  0  0
   -3.4316    1.7621   -4.6560 H   0  0  0  0  0  0  0  0  0  0  0  0
   -4.1941    2.9477   -2.7513 H   0  0  0  0  0  0  0  0  0  0  0  0
   -0.0014    0.1385   -5.8791 H   0  0  0  0  0  0  0  0  0  0  0  0
    1.4399   -1.4326   -4.8606 H   0  0  0  0  0  0  0  0  0  0  0  0
  1  2  1  0
  1  5  1  0
  2  3  1  0
  2  4  1  0
  2 11  1  0
  5  6  1  0
  5  7  1  0
  5  8  1  0
  8  9  1  0
  8 36  1  0
  8 37  1  0
  9 14  1  0
  9 18  1  0
  9 19  1  0
 10 11  1  0
 10 15  1  0
 10 34  1  0
 10 35  1  0
 11 12  1  0
 11 13  1  0
 14 16  1  0
 14 20  1  0
 14 21  1  0
 15 17  1  0
 15 32  1  0
 15 33  1  0
 16 24  1  0
 16 30  1  0
 16 31  1  0
 17 22  1  0
 17 23  1  0
 17 27  1  0
 24 25  1  0
 24 26  1  0
 24 27  1  0
 27 28  1  0
 27 29  1  0
M  CHG  1   1   1
M  RAD  1   1   2
M  END
$$$$

     RDKit          3D

 37 37  0  0  0  0  0  0  0  0999 V2000
   -1.5415    0.4262   -2.4716 S   0  0  0  0  0  2  0  0  0  0  0  0
   -3.2912   -0.8125   -2.5217 Si  0  0  0  0  0  4  0  0  0  0  0  0
   -4.2790   -0.2812   -1.5844 H   0  0  0  0  0  0  0  0  0  0  0  0
   -2.8764   -2.1833   -2.1939 H   0  0  0  0  0  0  0  0  0  0  0  0
   -1.1654    1.2586   -4.4322 Si  0  0  0  0  0  4  0  0  0  0  0  0
   -2.5007    1.3733   -5.0847 H   0  0  0  0  0  0  0  0  0  0  0  0
   -0.2827    0.3965   -5.2160 H   0  0  0  0  0  0  0  0  0  0  0  0
   -0.3241    3.3121   -4.2811 Si  0  0  0  0  0  4  0  0  0  0  0  0
   -1.1330    4.5179   -5.9844 Si  0  0  0  0  0  4  0  0  0  0  0  0
   -2.5741   -1.3440   -6.0203 Si  0  0  0  0  0  4  0  0  0  0  0  0
   -4.1721   -0.7372   -4.5866 Si  0  0  0  0  0  4  0  0  0  0  0  0
   -5.3591   -1.5642   -4.6921 H   0  0  0  0  0  0  0  0  0  0  0  0
   -4.5485    0.6590   -4.8368 H   0  0  0  0  0  0  0  0  0  0  0  0
   -1.7948    3.1847   -7.6612 Si  0  0  0  0  0  4  0  0  0  0  0  0
   -3.4414   -2.8546   -7.4547 Si  0  0  0  0  0  4  0  0  0  0  0  0
   -4.0051    3.0624   -7.6135 Si  0  0  0  0  0  4  0  0  0  0  0  0
   -4.9159   -1.7271   -8.7277 Si  0  0  0  0  0  4  0  0  0  0  0  0
   -0.1003    5.4599   -6.4187 H   0  0  0  0  0  0  0  0  0  0  0  0
   -2.2634    5.3046   -5.4529 H   0  0  0  0  0  0  0  0  0  0  0  0
   -1.1538    1.8845   -7.5788 H   0  0  0  0  0  0  0  0  0  0  0  0
   -1.4033    3.8578   -8.9179 H   0  0  0  0  0  0  0  0  0  0  0  0
   -5.4641   -2.6423   -9.7123 H   0  0  0  0  0  0  0  0  0  0  0  0
   -5.9986   -1.2820   -7.8486 H   0  0  0  0  0  0  0  0  0  0  0  0
   -4.8469    1.9160   -9.2990 Si  0  0  0  0  0  4  0  0  0  0  0  0
   -6.2734    1.6563   -9.0205 H   0  0  0  0  0  0  0  0  0  0  0  0
   -4.7875    2.7686  -10.5136 H   0  0  0  0  0  0  0  0  0  0  0  0
   -3.8391   -0.0062   -9.6635 Si  0  0  0  0  0  4  0  0  0  0  0  0
   -3.8408   -0.2577  -11.1337 H   0  0  0  0  0  0  0  0  0  0  0  0
   -2.4098    0.0086   -9.2738 H   0  0  0  0  0  0  0  0  0  0  0  0
   -4.5307    4.4553   -7.7086 H   0  0  0  0  0  0  0  0  0  0  0  0
   -4.4966    2.5413   -6.3252 H   0  0  0  0  0  0  0  0  0  0  0  0
   -2.3593   -3.3178   -8.3497 H   0  0  0  0  0  0  0  0  0  0  0  0
   -4.0720   -3.9543   -6.7483 H   0  0  0  0  0  0  0  0  0  0  0  0
   -2.1442   -0.1990   -6.8644 H   0  0  0  0  0  0  0  0  0  0  0  0
   -1.3904   -1.8572   -5.3602 H   0  0  0  0  0  0  0  0  0  0  0  0
   -0.7178    3.8688   -2.9858 H   0  0  0  0  0  0  0  0  0  0  0  0
    1.1398    3.2678   -4.3156 H   0  0  0  0  0  0  0  0  0  0  0  0
  1  2  1  0
  1  5  1  0
  2  3  1  0
  2  4  1  0
  2 11  1  0
  5  6  1  0
  5  7  1  0
  5  8  1  0
  8  9  1  0
  8 36  1  0
  8 37  1  0
  9 14  1  0
  9 18  1  0
  9 19  1  0
 10 11  1  0
 10 15  1  0
 10 34  1  0
 10 35  1  0
 11 12  1  0
 11 13  1  0
 14 16  1  0
 14 20  1  0
 14 21  1  0
 15 17  1  0
 15 32  1  0
 15 33  1  0
 16 24  1  0
 16 30  1  0
 16 31  1  0
 17 22  1  0
 17 23  1  0
 17 27  1  0
 24 25  1  0
 24 26  1  0
 24 27  1  0
 27 28  1  0
 27 29  1  0
M  CHG  1   1   1
M  RAD  1   1   2
M  END
$$$$

     RDKit          3D

 37 37  0  0  0  0  0  0  0  0999 V2000
   -1.5415    0.4262   -2.4716 S   0  0  0  0  0  2  0  0  0  0  0  0
   -3.1181   -0.9625   -2.7787 Si  0  0  0  0  0  4  0  0  0  0  0  0
   -3.0620   -2.0930   -1.8115 H   0  0  0  0  0  0  0  0  0  0  0  0
   -4.4433   -0.3624   -2.6346 H   0  0  0  0  0  0  0  0  0  0  0  0
   -2.1312    2.4355   -2.8573 Si  0  0  0  0  0  4  0  0  0  0  0  0
   -3.1071    2.8714   -1.8667 H   0  0  0  0  0  0  0  0  0  0  0  0
   -0.9297    3.2892   -2.6804 H   0  0  0  0  0  0  0  0  0  0  0  0
   -2.9408    2.7170   -4.8992 Si  0  0  0  0  0  4  0  0  0  0  0  0
   -5.1586    2.6640   -4.9425 Si  0  0  0  0  0  4  0  0  0  0  0  0
   -1.3655   -3.3503   -4.9766 Si  0  0  0  0  0  4  0  0  0  0  0  0
   -2.9011   -1.7586   -4.8726 Si  0  0  0  0  0  4  0  0  0  0  0  0
   -4.2080   -2.2002   -5.3753 H   0  0  0  0  0  0  0  0  0  0  0  0
   -2.4828   -0.6163   -5.7079 H   0  0  0  0  0  0  0  0  0  0  0  0
   -5.9492    0.8962   -6.0133 Si  0  0  0  0  0  4  0  0  0  0  0  0
   -2.3837   -5.2337   -5.6853 Si  0  0  0  0  0  4  0  0  0  0  0  0
   -4.9325    0.5573   -7.9597 Si  0  0  0  0  0  4  0  0  0  0  0  0
   -4.1215   -4.5892   -6.9655 Si  0  0  0  0  0  4  0  0  0  0  0  0
   -5.7262    3.8761   -5.5964 H   0  0  0  0  0  0  0  0  0  0  0  0
   -5.6578    2.6603   -3.5716 H   0  0  0  0  0  0  0  0  0  0  0  0
   -7.3808    1.1022   -6.2810 H   0  0  0  0  0  0  0  0  0  0  0  0
   -5.8544   -0.3004   -5.1431 H   0  0  0  0  0  0  0  0  0  0  0  0
   -4.5419   -5.7302   -7.7590 H   0  0  0  0  0  0  0  0  0  0  0  0
   -5.2067   -4.1327   -6.0547 H   0  0  0  0  0  0  0  0  0  0  0  0
   -5.2985   -1.5401   -8.6737 Si  0  0  0  0  0  4  0  0  0  0  0  0
   -6.5008   -2.0871   -8.0276 H   0  0  0  0  0  0  0  0  0  0  0  0
   -5.5531   -1.5643  -10.1271 H   0  0  0  0  0  0  0  0  0  0  0  0
   -3.5518   -2.8493   -8.2450 Si  0  0  0  0  0  4  0  0  0  0  0  0
   -2.9835   -3.4034   -9.5055 H   0  0  0  0  0  0  0  0  0  0  0  0
   -2.4938   -2.0433   -7.6377 H   0  0  0  0  0  0  0  0  0  0  0  0
   -5.5437    1.4831   -8.9449 H   0  0  0  0  0  0  0  0  0  0  0  0
   -3.4903    0.8375   -7.8851 H   0  0  0  0  0  0  0  0  0  0  0  0
   -1.4708   -6.0896   -6.4180 H   0  0  0  0  0  0  0  0  0  0  0  0
   -2.8671   -5.9201   -4.4681 H   0  0  0  0  0  0  0  0  0  0  0  0
   -0.3585   -3.0104   -6.0209 H   0  0  0  0  0  0  0  0  0  0  0  0
   -0.6848   -3.5688   -3.7027 H   0  0  0  0  0  0  0  0  0  0  0  0
   -2.5249    4.0736   -5.3601 H   0  0  0  0  0  0  0  0  0  0  0  0
   -2.3538    1.7747   -5.8734 H   0  0  0  0  0  0  0  0  0  0  0  0
  1  2  1  0
  1  5  1  0
  2  3  1  0
  2  4  1  0
  2 11  1  0
  5  6  1  0
  5  7  1  0
  5  8  1  0
  8  9  1  0
  8 36  1  0
  8 37  1  0
  9 14  1  0
  9 18  1  0
  9 19  1  0
 10 11  1  0
 10 15  1  0
 10 34  1  0
 10 35  1  0
 11 12  1  0
 11 13  1  0
 14 16  1  0
 14 20  1  0
 14 21  1  0
 15 17  1  0
 15 32  1  0
 15 33  1  0
 16 24  1  0
 16 30  1  0
 16 31  1  0
 17 22  1  0
 17 23  1  0
 17 27  1  0
 24 25  1  0
 24 26  1  0
 24 27  1  0
 27 28  1  0
 27 29  1  0
M  CHG  1   1   1
M  RAD  1   1   2
M  END
$$$$

     RDKit          3D

 37 37  0  0  0  0  0  0  0  0999 V2000
   -1.5415    0.4262   -2.4716 S   0  0  0  0  0  2  0  0  0  0  0  0
   -0.2556   -0.0448   -4.0942 Si  0  0  0  0  0  4  0  0  0  0  0  0
    1.1471   -0.2680   -3.6477 H   0  0  0  0  0  0  0  0  0  0  0  0
   -0.6580   -1.2548   -4.8087 H   0  0  0  0  0  0  0  0  0  0  0  0
   -3.4995   -0.3735   -2.7176 Si  0  0  0  0  0  4  0  0  0  0  0  0
   -3.4596   -1.8288   -2.6513 H   0  0  0  0  0  0  0  0  0  0  0  0
   -4.3118    0.0864   -1.5633 H   0  0  0  0  0  0  0  0  0  0  0  0
   -4.4634    0.2769   -4.6023 Si  0  0  0  0  0  4  0  0  0  0  0  0
   -4.2659   -1.2332   -6.2160 Si  0  0  0  0  0  4  0  0  0  0  0  0
    0.9998    3.3426   -4.8389 Si  0  0  0  0  0  4  0  0  0  0  0  0
   -0.3188    1.6981   -5.5168 Si  0  0  0  0  0  4  0  0  0  0  0  0
   -0.0016    1.2429   -6.8762 H   0  0  0  0  0  0  0  0  0  0  0  0
   -1.7183    2.1658   -5.5358 H   0  0  0  0  0  0  0  0  0  0  0  0
   -2.9734   -0.5451   -7.8751 Si  0  0  0  0  0  4  0  0  0  0  0  0
    2.5514    3.6759   -6.4413 Si  0  0  0  0  0  4  0  0  0  0  0  0
   -3.4635    1.5198   -8.5334 Si  0  0  0  0  0  4  0  0  0  0  0  0
    1.6058    3.0739   -8.3952 Si  0  0  0  0  0  4  0  0  0  0  0  0
   -5.5888   -1.5946   -6.7975 H   0  0  0  0  0  0  0  0  0  0  0  0
   -3.7127   -2.4591   -5.6506 H   0  0  0  0  0  0  0  0  0  0  0  0
   -3.1577   -1.4421   -9.0262 H   0  0  0  0  0  0  0  0  0  0  0  0
   -1.5487   -0.6583   -7.4805 H   0  0  0  0  0  0  0  0  0  0  0  0
    2.3951    3.6466   -9.4710 H   0  0  0  0  0  0  0  0  0  0  0  0
    1.6050    1.5867   -8.4556 H   0  0  0  0  0  0  0  0  0  0  0  0
   -1.7643    2.3811   -9.7225 Si  0  0  0  0  0  4  0  0  0  0  0  0
   -0.9278    1.2974  -10.2590 H   0  0  0  0  0  0  0  0  0  0  0  0
   -2.2667    3.1403  -10.8840 H   0  0  0  0  0  0  0  0  0  0  0  0
   -0.5234    3.7437   -8.4766 Si  0  0  0  0  0  4  0  0  0  0  0  0
   -0.5247    5.1231   -9.0386 H   0  0  0  0  0  0  0  0  0  0  0  0
   -1.1200    3.8426   -7.1454 H   0  0  0  0  0  0  0  0  0  0  0  0
   -4.6424    1.4301   -9.4297 H   0  0  0  0  0  0  0  0  0  0  0  0
   -3.8017    2.3946   -7.4001 H   0  0  0  0  0  0  0  0  0  0  0  0
    3.0009    5.0543   -6.4692 H   0  0  0  0  0  0  0  0  0  0  0  0
    3.6771    2.7746   -6.1143 H   0  0  0  0  0  0  0  0  0  0  0  0
    0.2202    4.6095   -4.7527 H   0  0  0  0  0  0  0  0  0  0  0  0
    1.6276    3.0734   -3.5477 H   0  0  0  0  0  0  0  0  0  0  0  0
   -5.9207    0.4357   -4.3256 H   0  0  0  0  0  0  0  0  0  0  0  0
   -4.0001    1.6086   -5.0422 H   0  0  0  0  0  0  0  0  0  0  0  0
  1  2  1  0
  1  5  1  0
  2  3  1  0
  2  4  1  0
  2 11  1  0
  5  6  1  0
  5  7  1  0
  5  8  1  0
  8  9  1  0
  8 36  1  0
  8 37  1  0
  9 14  1  0
  9 18  1  0
  9 19  1  0
 10 11  1  0
 10 15  1  0
 10 34  1  0
 10 35  1  0
 11 12  1  0
 11 13  1  0
 14 16  1  0
 14 20  1  0
 14 21  1  0
 15 17  1  0
 15 32  1  0
 15 33  1  0
 16 24  1  0
 16 30  1  0
 16 31  1  0
 17 22  1  0
 17 23  1  0
 17 27  1  0
 24 25  1  0
 24 26  1  0
 24 27  1  0
 27 28  1  0
 27 29  1  0
M  CHG  1   1   1
M  RAD  1   1   2
M  END
$$$$

     RDKit          3D

 37 37  0  0  0  0  0  0  0  0999 V2000
   -1.5415    0.4262   -2.4716 S   0  0  0  0  0  2  0  0  0  0  0  0
   -3.4526   -0.5422   -2.3810 Si  0  0  0  0  0  4  0  0  0  0  0  0
   -4.3191    0.1967   -1.4647 H   0  0  0  0  0  0  0  0  0  0  0  0
   -3.2290   -1.9309   -1.9564 H   0  0  0  0  0  0  0  0  0  0  0  0
   -1.1193    1.0460   -4.5004 Si  0  0  0  0  0  4  0  0  0  0  0  0
   -2.4463    1.3068   -5.1270 H   0  0  0  0  0  0  0  0  0  0  0  0
   -0.3990    0.0077   -5.2350 H   0  0  0  0  0  0  0  0  0  0  0  0
    0.0150    2.9591   -4.5323 Si  0  0  0  0  0  4  0  0  0  0  0  0
   -0.6713    4.1405   -6.3050 Si  0  0  0  0  0  4  0  0  0  0  0  0
   -2.9453   -1.4322   -5.8434 Si  0  0  0  0  0  4  0  0  0  0  0  0
   -4.3865   -0.4922   -4.4233 Si  0  0  0  0  0  4  0  0  0  0  0  0
   -5.6836   -1.1414   -4.4342 H   0  0  0  0  0  0  0  0  0  0  0  0
   -4.5657    0.9216   -4.7735 H   0  0  0  0  0  0  0  0  0  0  0  0
   -1.5784    2.7980   -7.8547 Si  0  0  0  0  0  4  0  0  0  0  0  0
   -4.0725   -2.9015   -7.1326 Si  0  0  0  0  0  4  0  0  0  0  0  0
   -3.7800    3.0057   -7.7436 Si  0  0  0  0  0  4  0  0  0  0  0  0
   -5.4130   -1.6676   -8.4541 Si  0  0  0  0  0  4  0  0  0  0  0  0
    0.4707    4.8856   -6.8374 H   0  0  0  0  0  0  0  0  0  0  0  0
   -1.6563    5.1222   -5.8097 H   0  0  0  0  0  0  0  0  0  0  0  0
   -1.1296    1.4275   -7.6859 H   0  0  0  0  0  0  0  0  0  0  0  0
   -1.1388    3.3108   -9.1698 H   0  0  0  0  0  0  0  0  0  0  0  0
   -6.1226   -2.5630   -9.3498 H   0  0  0  0  0  0  0  0  0  0  0  0
   -6.3879   -1.0040   -7.5866 H   0  0  0  0  0  0  0  0  0  0  0  0
   -4.8384    1.8732   -9.3123 Si  0  0  0  0  0  4  0  0  0  0  0  0
   -6.2766    1.8473   -8.9795 H   0  0  0  0  0  0  0  0  0  0  0  0
   -4.6997    2.6150  -10.5915 H   0  0  0  0  0  0  0  0  0  0  0  0
   -4.1328   -0.1980   -9.5487 Si  0  0  0  0  0  4  0  0  0  0  0  0
   -4.2234   -0.5553  -10.9940 H   0  0  0  0  0  0  0  0  0  0  0  0
   -2.7034   -0.3644   -9.1964 H   0  0  0  0  0  0  0  0  0  0  0  0
   -4.1017    4.4497   -7.9353 H   0  0  0  0  0  0  0  0  0  0  0  0
   -4.2954    2.6598   -6.4066 H   0  0  0  0  0  0  0  0  0  0  0  0
   -3.1015   -3.5840   -8.0144 H   0  0  0  0  0  0  0  0  0  0  0  0
   -4.8299   -3.8410   -6.3265 H   0  0  0  0  0  0  0  0  0  0  0  0
   -2.3847   -0.4288   -6.7854 H   0  0  0  0  0  0  0  0  0  0  0  0
   -1.8254   -2.0632   -5.1740 H   0  0  0  0  0  0  0  0  0  0  0  0
   -0.2475    3.6625   -3.2756 H   0  0  0  0  0  0  0  0  0  0  0  0
    1.4550    2.6978   -4.5990 H   0  0  0  0  0  0  0  0  0  0  0  0
  1  2  1  0
  1  5  1  0
  2  3  1  0
  2  4  1  0
  2 11  1  0
  5  6  1  0
  5  7  1  0
  5  8  1  0
  8  9  1  0
  8 36  1  0
  8 37  1  0
  9 14  1  0
  9 18  1  0
  9 19  1  0
 10 11  1  0
 10 15  1  0
 10 34  1  0
 10 35  1  0
 11 12  1  0
 11 13  1  0
 14 16  1  0
 14 20  1  0
 14 21  1  0
 15 17  1  0
 15 32  1  0
 15 33  1  0
 16 24  1  0
 16 30  1  0
 16 31  1  0
 17 22  1  0
 17 23  1  0
 17 27  1  0
 24 25  1  0
 24 26  1  0
 24 27  1  0
 27 28  1  0
 27 29  1  0
M  CHG  1   1   1
M  RAD  1   1   2
M  END
$$$$

     RDKit          3D

 37 37  0  0  0  0  0  0  0  0999 V2000
   -1.5415    0.4262   -2.4716 S   0  0  0  0  0  2  0  0  0  0  0  0
   -2.8633   -1.1639   -2.9542 Si  0  0  0  0  0  4  0  0  0  0  0  0
   -2.6499   -2.3510   -2.0813 H   0  0  0  0  0  0  0  0  0  0  0  0
   -4.2715   -0.7977   -2.8147 H   0  0  0  0  0  0  0  0  0  0  0  0
   -2.4390    2.3417   -2.7148 Si  0  0  0  0  0  4  0  0  0  0  0  0
   -3.4985    2.5283   -1.7317 H   0  0  0  0  0  0  0  0  0  0  0  0
   -1.3971    3.3573   -2.4207 H   0  0  0  0  0  0  0  0  0  0  0  0
   -3.2295    2.6676   -4.7576 Si  0  0  0  0  0  4  0  0  0  0  0  0
   -5.4074    2.2657   -4.8938 Si  0  0  0  0  0  4  0  0  0  0  0  0
   -0.6891   -3.0408   -5.2683 Si  0  0  0  0  0  4  0  0  0  0  0  0
   -2.4649   -1.7295   -5.0959 Si  0  0  0  0  0  4  0  0  0  0  0  0
   -3.6691   -2.3282   -5.6850 H   0  0  0  0  0  0  0  0  0  0  0  0
   -2.2157   -0.4666   -5.8175 H   0  0  0  0  0  0  0  0  0  0  0  0
   -5.8723    0.4947   -6.1366 Si  0  0  0  0  0  4  0  0  0  0  0  0
   -1.3693   -4.9933   -6.1690 Si  0  0  0  0  0  4  0  0  0  0  0  0
   -4.7631    0.4933   -8.0620 Si  0  0  0  0  0  4  0  0  0  0  0  0
   -3.1543   -4.5249   -7.4607 Si  0  0  0  0  0  4  0  0  0  0  0  0
   -6.1468    3.4241   -5.4685 H   0  0  0  0  0  0  0  0  0  0  0  0
   -5.9353    2.0628   -3.5489 H   0  0  0  0  0  0  0  0  0  0  0  0
   -7.3107    0.4924   -6.4436 H   0  0  0  0  0  0  0  0  0  0  0  0
   -5.6075   -0.7428   -5.3642 H   0  0  0  0  0  0  0  0  0  0  0  0
   -3.3629   -5.6447   -8.3612 H   0  0  0  0  0  0  0  0  0  0  0  0
   -4.3228   -4.3285   -6.5598 H   0  0  0  0  0  0  0  0  0  0  0  0
   -4.7651   -1.5652   -8.9593 Si  0  0  0  0  0  4  0  0  0  0  0  0
   -5.8792   -2.3511   -8.4089 H   0  0  0  0  0  0  0  0  0  0  0  0
   -4.9739   -1.5027  -10.4188 H   0  0  0  0  0  0  0  0  0  0  0  0
   -2.8409   -2.6115   -8.5696 Si  0  0  0  0  0  4  0  0  0  0  0  0
   -2.1573   -2.9558   -9.8475 H   0  0  0  0  0  0  0  0  0  0  0  0
   -1.9441   -1.7033   -7.8565 H   0  0  0  0  0  0  0  0  0  0  0  0
   -5.4903    1.3923   -8.9917 H   0  0  0  0  0  0  0  0  0  0  0  0
   -3.3879    0.9923   -7.9070 H   0  0  0  0  0  0  0  0  0  0  0  0
   -0.3106   -5.6255   -6.9321 H   0  0  0  0  0  0  0  0  0  0  0  0
   -1.7667   -5.8516   -5.0324 H   0  0  0  0  0  0  0  0  0  0  0  0
    0.2765   -2.4549   -6.2401 H   0  0  0  0  0  0  0  0  0  0  0  0
   -0.0158   -3.2582   -3.9903 H   0  0  0  0  0  0  0  0  0  0  0  0
   -3.0273    4.1082   -5.0889 H   0  0  0  0  0  0  0  0  0  0  0  0
   -2.4720    1.9195   -5.7814 H   0  0  0  0  0  0  0  0  0  0  0  0
  1  2  1  0
  1  5  1  0
  2  3  1  0
  2  4  1  0
  2 11  1  0
  5  6  1  0
  5  7  1  0
  5  8  1  0
  8  9  1  0
  8 36  1  0
  8 37  1  0
  9 14  1  0
  9 18  1  0
  9 19  1  0
 10 11  1  0
 10 15  1  0
 10 34  1  0
 10 35  1  0
 11 12  1  0
 11 13  1  0
 14 16  1  0
 14 20  1  0
 14 21  1  0
 15 17  1  0
 15 32  1  0
 15 33  1  0
 16 24  1  0
 16 30  1  0
 16 31  1  0
 17 22  1  0
 17 23  1  0
 17 27  1  0
 24 25  1  0
 24 26  1  0
 24 27  1  0
 27 28  1  0
 27 29  1  0
M  CHG  1   1   1
M  RAD  1   1   2
M  END
$$$$

     RDKit          3D

 37 37  0  0  0  0  0  0  0  0999 V2000
   -1.5415    0.4262   -2.4716 S   0  0  0  0  0  2  0  0  0  0  0  0
   -2.3259    2.1517   -3.4501 Si  0  0  0  0  0  4  0  0  0  0  0  0
   -3.6874    1.8643   -3.9447 H   0  0  0  0  0  0  0  0  0  0  0  0
   -2.4295    3.2278   -2.4412 H   0  0  0  0  0  0  0  0  0  0  0  0
   -1.5681   -1.2967   -3.7301 Si  0  0  0  0  0  4  0  0  0  0  0  0
   -2.0203   -0.9408   -5.1037 H   0  0  0  0  0  0  0  0  0  0  0  0
   -2.4397   -2.3496   -3.2465 H   0  0  0  0  0  0  0  0  0  0  0  0
    0.5565   -2.0301   -3.9135 Si  0  0  0  0  0  4  0  0  0  0  0  0
    1.6886   -0.5593   -5.1360 Si  0  0  0  0  0  4  0  0  0  0  0  0
   -1.8559    1.9991   -7.1052 Si  0  0  0  0  0  4  0  0  0  0  0  0
   -1.0616    2.7990   -5.1597 Si  0  0  0  0  0  4  0  0  0  0  0  0
    0.3498    2.4529   -4.9800 H   0  0  0  0  0  0  0  0  0  0  0  0
   -1.1229    4.2873   -5.2099 H   0  0  0  0  0  0  0  0  0  0  0  0
    3.1689   -1.5609   -6.4744 Si  0  0  0  0  0  4  0  0  0  0  0  0
   -0.2235    1.9164   -8.6187 Si  0  0  0  0  0  4  0  0  0  0  0  0
    2.1526   -2.1858   -8.3767 Si  0  0  0  0  0  4  0  0  0  0  0  0
   -0.4819    0.2491  -10.0471 Si  0  0  0  0  0  4  0  0  0  0  0  0
    0.7374    0.1603   -5.9943 H   0  0  0  0  0  0  0  0  0  0  0  0
    2.3218    0.4357   -4.2643 H   0  0  0  0  0  0  0  0  0  0  0  0
    3.7813   -2.7128   -5.8147 H   0  0  0  0  0  0  0  0  0  0  0  0
    4.2012   -0.5604   -6.8101 H   0  0  0  0  0  0  0  0  0  0  0  0
   -1.3296    0.7104  -11.1578 H   0  0  0  0  0  0  0  0  0  0  0  0
    0.8438   -0.1224  -10.5968 H   0  0  0  0  0  0  0  0  0  0  0  0
    0.0562   -2.7896   -8.0264 Si  0  0  0  0  0  4  0  0  0  0  0  0
   -0.1456   -4.2333   -8.3392 H   0  0  0  0  0  0  0  0  0  0  0  0
   -0.2434   -2.6491   -6.5827 H   0  0  0  0  0  0  0  0  0  0  0  0
   -1.3971   -1.5403   -9.1435 Si  0  0  0  0  0  4  0  0  0  0  0  0
   -1.9762   -2.3832  -10.2279 H   0  0  0  0  0  0  0  0  0  0  0  0
   -2.5402   -1.1702   -8.2799 H   0  0  0  0  0  0  0  0  0  0  0  0
    2.9037   -3.3653   -8.8783 H   0  0  0  0  0  0  0  0  0  0  0  0
    2.2489   -1.1563   -9.4038 H   0  0  0  0  0  0  0  0  0  0  0  0
    1.0451    1.6775   -7.8718 H   0  0  0  0  0  0  0  0  0  0  0  0
   -0.0934    3.2029   -9.2917 H   0  0  0  0  0  0  0  0  0  0  0  0
   -2.8571    2.9658   -7.5796 H   0  0  0  0  0  0  0  0  0  0  0  0
   -2.4920    0.7094   -6.8934 H   0  0  0  0  0  0  0  0  0  0  0  0
    1.0999   -2.0710   -2.5404 H   0  0  0  0  0  0  0  0  0  0  0  0
    0.6060   -3.3789   -4.4588 H   0  0  0  0  0  0  0  0  0  0  0  0
  1  2  1  0
  1  5  1  0
  2  3  1  0
  2  4  1  0
  2 11  1  0
  5  6  1  0
  5  7  1  0
  5  8  1  0
  8  9  1  0
  8 36  1  0
  8 37  1  0
  9 14  1  0
  9 18  1  0
  9 19  1  0
 10 11  1  0
 10 15  1  0
 10 34  1  0
 10 35  1  0
 11 12  1  0
 11 13  1  0
 14 16  1  0
 14 20  1  0
 14 21  1  0
 15 17  1  0
 15 32  1  0
 15 33  1  0
 16 24  1  0
 16 30  1  0
 16 31  1  0
 17 22  1  0
 17 23  1  0
 17 27  1  0
 24 25  1  0
 24 26  1  0
 24 27  1  0
 27 28  1  0
 27 29  1  0
M  CHG  1   1   1
M  RAD  1   1   2
M  END
$$$$

     RDKit          3D

 37 37  0  0  0  0  0  0  0  0999 V2000
   -1.5415    0.4262   -2.4716 S   0  0  0  0  0  2  0  0  0  0  0  0
   -3.5089    1.1398   -2.0043 Si  0  0  0  0  0  4  0  0  0  0  0  0
   -3.4098    2.4960   -1.4682 H   0  0  0  0  0  0  0  0  0  0  0  0
   -4.1115    0.1955   -1.0537 H   0  0  0  0  0  0  0  0  0  0  0  0
   -1.4071   -0.0546   -4.5762 Si  0  0  0  0  0  4  0  0  0  0  0  0
   -2.3722    0.8527   -5.2597 H   0  0  0  0  0  0  0  0  0  0  0  0
   -1.7513   -1.4532   -4.8256 H   0  0  0  0  0  0  0  0  0  0  0  0
    0.6165    0.4092   -5.3747 Si  0  0  0  0  0  4  0  0  0  0  0  0
    0.3795    1.1416   -7.4762 Si  0  0  0  0  0  4  0  0  0  0  0  0
   -4.6701   -0.8151   -4.8093 Si  0  0  0  0  0  4  0  0  0  0  0  0
   -4.7176    1.2199   -3.8959 Si  0  0  0  0  0  4  0  0  0  0  0  0
   -6.0679    1.6883   -3.6482 H   0  0  0  0  0  0  0  0  0  0  0  0
   -4.0464    2.1718   -4.7885 H   0  0  0  0  0  0  0  0  0  0  0  0
   -1.5574    0.4312   -8.3542 Si  0  0  0  0  0  4  0  0  0  0  0  0
   -6.7738   -1.3798   -5.3985 Si  0  0  0  0  0  4  0  0  0  0  0  0
   -2.9817    2.1265   -8.3447 Si  0  0  0  0  0  4  0  0  0  0  0  0
   -7.3236   -0.0268   -7.1110 Si  0  0  0  0  0  4  0  0  0  0  0  0
    1.5279    0.6843   -8.2602 H   0  0  0  0  0  0  0  0  0  0  0  0
    0.4303    2.6161   -7.4238 H   0  0  0  0  0  0  0  0  0  0  0  0
   -2.0572   -0.7324   -7.6439 H   0  0  0  0  0  0  0  0  0  0  0  0
   -1.2802    0.0777   -9.7627 H   0  0  0  0  0  0  0  0  0  0  0  0
   -8.6525   -0.3876   -7.5708 H   0  0  0  0  0  0  0  0  0  0  0  0
   -7.3641    1.3405   -6.5896 H   0  0  0  0  0  0  0  0  0  0  0  0
   -4.8995    1.6535   -9.3255 Si  0  0  0  0  0  4  0  0  0  0  0  0
   -5.8602    2.7311   -9.0160 H   0  0  0  0  0  0  0  0  0  0  0  0
   -4.6838    1.6699  -10.7949 H   0  0  0  0  0  0  0  0  0  0  0  0
   -5.7717   -0.2683   -8.7016 Si  0  0  0  0  0  4  0  0  0  0  0  0
   -6.4653   -0.8654   -9.8794 H   0  0  0  0  0  0  0  0  0  0  0  0
   -4.7491   -1.2651   -8.3068 H   0  0  0  0  0  0  0  0  0  0  0  0
   -2.3500    3.2436   -9.1051 H   0  0  0  0  0  0  0  0  0  0  0  0
   -3.2014    2.6488   -6.9839 H   0  0  0  0  0  0  0  0  0  0  0  0
   -6.7521   -2.7612   -5.9254 H   0  0  0  0  0  0  0  0  0  0  0  0
   -7.6923   -1.2365   -4.2841 H   0  0  0  0  0  0  0  0  0  0  0  0
   -3.8905   -0.8199   -6.0744 H   0  0  0  0  0  0  0  0  0  0  0  0
   -4.0775   -1.8098   -3.9377 H   0  0  0  0  0  0  0  0  0  0  0  0
    1.2229    1.4235   -4.5106 H   0  0  0  0  0  0  0  0  0  0  0  0
    1.4701   -0.7804   -5.3246 H   0  0  0  0  0  0  0  0  0  0  0  0
  1  2  1  0
  1  5  1  0
  2  3  1  0
  2  4  1  0
  2 11  1  0
  5  6  1  0
  5  7  1  0
  5  8  1  0
  8  9  1  0
  8 36  1  0
  8 37  1  0
  9 14  1  0
  9 18  1  0
  9 19  1  0
 10 11  1  0
 10 15  1  0
 10 34  1  0
 10 35  1  0
 11 12  1  0
 11 13  1  0
 14 16  1  0
 14 20  1  0
 14 21  1  0
 15 17  1  0
 15 32  1  0
 15 33  1  0
 16 24  1  0
 16 30  1  0
 16 31  1  0
 17 22  1  0
 17 23  1  0
 17 27  1  0
 24 25  1  0
 24 26  1  0
 24 27  1  0
 27 28  1  0
 27 29  1  0
M  CHG  1   1   1
M  RAD  1   1   2
M  END
$$$$

     RDKit          3D

 37 37  0  0  0  0  0  0  0  0999 V2000
   -1.5415    0.4262   -2.4716 S   0  0  0  0  0  2  0  0  0  0  0  0
   -1.0966    2.3445   -3.3287 Si  0  0  0  0  0  4  0  0  0  0  0  0
   -0.9853    3.3759   -2.2934 H   0  0  0  0  0  0  0  0  0  0  0  0
   -2.0835    2.7016   -4.3502 H   0  0  0  0  0  0  0  0  0  0  0  0
   -3.4029   -0.3449   -3.1849 Si  0  0  0  0  0  4  0  0  0  0  0  0
   -3.4540   -1.7801   -2.8113 H   0  0  0  0  0  0  0  0  0  0  0  0
   -4.4808    0.3897   -2.4938 H   0  0  0  0  0  0  0  0  0  0  0  0
   -3.6002   -0.1735   -5.3852 Si  0  0  0  0  0  4  0  0  0  0  0  0
   -3.4283   -2.1723   -6.3483 Si  0  0  0  0  0  4  0  0  0  0  0  0
    0.9633    0.2349   -5.4096 Si  0  0  0  0  0  4  0  0  0  0  0  0
    0.9223    2.1735   -4.3134 Si  0  0  0  0  0  4  0  0  0  0  0  0
    1.1394    3.2686   -5.2557 H   0  0  0  0  0  0  0  0  0  0  0  0
    1.9388    2.1157   -3.2611 H   0  0  0  0  0  0  0  0  0  0  0  0
   -2.7877   -2.0305   -8.4669 Si  0  0  0  0  0  4  0  0  0  0  0  0
    2.4290    0.3612   -7.1084 Si  0  0  0  0  0  4  0  0  0  0  0  0
   -0.5421   -2.0967   -8.6331 Si  0  0  0  0  0  4  0  0  0  0  0  0
    3.2804   -1.6471   -7.5237 Si  0  0  0  0  0  4  0  0  0  0  0  0
   -2.5496   -3.0099   -5.5384 H   0  0  0  0  0  0  0  0  0  0  0  0
   -4.7710   -2.8095   -6.3149 H   0  0  0  0  0  0  0  0  0  0  0  0
   -3.3549   -3.1932   -9.1895 H   0  0  0  0  0  0  0  0  0  0  0  0
   -3.2701   -0.7883   -9.0722 H   0  0  0  0  0  0  0  0  0  0  0  0
    3.3737   -1.9318   -8.9636 H   0  0  0  0  0  0  0  0  0  0  0  0
    4.6836   -1.6420   -7.0198 H   0  0  0  0  0  0  0  0  0  0  0  0
    0.1987   -3.6582   -7.2692 Si  0  0  0  0  0  4  0  0  0  0  0  0
    0.1262   -4.9679   -7.9749 H   0  0  0  0  0  0  0  0  0  0  0  0
   -0.7572   -3.7816   -6.1335 H   0  0  0  0  0  0  0  0  0  0  0  0
    2.1967   -3.2520   -6.4486 Si  0  0  0  0  0  4  0  0  0  0  0  0
    2.1446   -2.8821   -5.0131 H   0  0  0  0  0  0  0  0  0  0  0  0
    3.0022   -4.4944   -6.5313 H   0  0  0  0  0  0  0  0  0  0  0  0
    0.0214   -0.7823   -8.4044 H   0  0  0  0  0  0  0  0  0  0  0  0
   -0.2206   -2.5032  -10.0248 H   0  0  0  0  0  0  0  0  0  0  0  0
    3.4538    1.3359   -6.7091 H   0  0  0  0  0  0  0  0  0  0  0  0
    1.7833    0.8903   -8.3207 H   0  0  0  0  0  0  0  0  0  0  0  0
    1.2317   -0.8994   -4.5454 H   0  0  0  0  0  0  0  0  0  0  0  0
   -0.3711    0.0405   -6.0313 H   0  0  0  0  0  0  0  0  0  0  0  0
   -4.9624    0.3386   -5.6801 H   0  0  0  0  0  0  0  0  0  0  0  0
   -2.6583    0.7654   -5.9784 H   0  0  0  0  0  0  0  0  0  0  0  0
  1  2  1  0
  1  5  1  0
  2  3  1  0
  2  4  1  0
  2 11  1  0
  5  6  1  0
  5  7  1  0
  5  8  1  0
  8  9  1  0
  8 36  1  0
  8 37  1  0
  9 14  1  0
  9 18  1  0
  9 19  1  0
 10 11  1  0
 10 15  1  0
 10 34  1  0
 10 35  1  0
 11 12  1  0
 11 13  1  0
 14 16  1  0
 14 20  1  0
 14 21  1  0
 15 17  1  0
 15 32  1  0
 15 33  1  0
 16 24  1  0
 16 30  1  0
 16 31  1  0
 17 22  1  0
 17 23  1  0
 17 27  1  0
 24 25  1  0
 24 26  1  0
 24 27  1  0
 27 28  1  0
 27 29  1  0
M  CHG  1   1   1
M  RAD  1   1   2
M  END
$$$$

     RDKit          3D

 37 37  0  0  0  0  0  0  0  0999 V2000
   -1.5415    0.4262   -2.4716 S   0  0  0  0  0  2  0  0  0  0  0  0
   -2.2553    2.1621   -3.4851 Si  0  0  0  0  0  4  0  0  0  0  0  0
   -3.6336    1.9264   -3.9602 H   0  0  0  0  0  0  0  0  0  0  0  0
   -2.2989    3.2659   -2.5020 H   0  0  0  0  0  0  0  0  0  0  0  0
   -1.6603   -1.3234   -3.6871 Si  0  0  0  0  0  4  0  0  0  0  0  0
   -2.1095   -0.9802   -5.0650 H   0  0  0  0  0  0  0  0  0  0  0  0
   -2.5746   -2.3228   -3.1700 H   0  0  0  0  0  0  0  0  0  0  0  0
    0.4263   -2.1588   -3.8716 Si  0  0  0  0  0  4  0  0  0  0  0  0
    1.6125   -0.7720   -5.1399 Si  0  0  0  0  0  4  0  0  0  0  0  0
   -1.8298    1.8998   -7.1394 Si  0  0  0  0  0  4  0  0  0  0  0  0
   -0.9798    2.7087   -5.2214 Si  0  0  0  0  0  4  0  0  0  0  0  0
    0.4159    2.3019   -5.0459 H   0  0  0  0  0  0  0  0  0  0  0  0
   -0.9728    4.1965   -5.3075 H   0  0  0  0  0  0  0  0  0  0  0  0
    3.0315   -1.8732   -6.4666 Si  0  0  0  0  0  4  0  0  0  0  0  0
   -0.2183    1.7050   -8.6651 Si  0  0  0  0  0  4  0  0  0  0  0  0
    1.9682   -2.4960   -8.3438 Si  0  0  0  0  0  4  0  0  0  0  0  0
   -0.5679    0.0176  -10.0497 Si  0  0  0  0  0  4  0  0  0  0  0  0
    0.6870   -0.0299   -6.0070 H   0  0  0  0  0  0  0  0  0  0  0  0
    2.2998    0.2133   -4.2986 H   0  0  0  0  0  0  0  0  0  0  0  0
    3.5967   -3.0360   -5.7843 H   0  0  0  0  0  0  0  0  0  0  0  0
    4.1054   -0.9301   -6.8360 H   0  0  0  0  0  0  0  0  0  0  0  0
   -1.4045    0.4908  -11.1637 H   0  0  0  0  0  0  0  0  0  0  0  0
    0.7337   -0.4282  -10.6020 H   0  0  0  0  0  0  0  0  0  0  0  0
   -0.1502   -2.9933   -7.9599 Si  0  0  0  0  0  4  0  0  0  0  0  0
   -0.4215   -4.4332   -8.2354 H   0  0  0  0  0  0  0  0  0  0  0  0
   -0.4283   -2.8043   -6.5175 H   0  0  0  0  0  0  0  0  0  0  0  0
   -1.5555   -1.7051   -9.0942 Si  0  0  0  0  0  4  0  0  0  0  0  0
   -2.1838   -2.5461  -10.1523 H   0  0  0  0  0  0  0  0  0  0  0  0
   -2.6715   -1.2617   -8.2297 H   0  0  0  0  0  0  0  0  0  0  0  0
    2.6589   -3.7207   -8.8230 H   0  0  0  0  0  0  0  0  0  0  0  0
    2.1015   -1.4971   -9.3967 H   0  0  0  0  0  0  0  0  0  0  0  0
    1.0453    1.4256   -7.9240 H   0  0  0  0  0  0  0  0  0  0  0  0
   -0.0358    2.9675   -9.3706 H   0  0  0  0  0  0  0  0  0  0  0  0
   -2.7901    2.9002   -7.6283 H   0  0  0  0  0  0  0  0  0  0  0  0
   -2.5225    0.6465   -6.8903 H   0  0  0  0  0  0  0  0  0  0  0  0
    0.9810   -2.1918   -2.5028 H   0  0  0  0  0  0  0  0  0  0  0  0
    0.4079   -3.5212   -4.3841 H   0  0  0  0  0  0  0  0  0  0  0  0
  1  2  1  0
  1  5  1  0
  2  3  1  0
  2  4  1  0
  2 11  1  0
  5  6  1  0
  5  7  1  0
  5  8  1  0
  8  9  1  0
  8 36  1  0
  8 37  1  0
  9 14  1  0
  9 18  1  0
  9 19  1  0
 10 11  1  0
 10 15  1  0
 10 34  1  0
 10 35  1  0
 11 12  1  0
 11 13  1  0
 14 16  1  0
 14 20  1  0
 14 21  1  0
 15 17  1  0
 15 32  1  0
 15 33  1  0
 16 24  1  0
 16 30  1  0
 16 31  1  0
 17 22  1  0
 17 23  1  0
 17 27  1  0
 24 25  1  0
 24 26  1  0
 24 27  1  0
 27 28  1  0
 27 29  1  0
M  CHG  1   1   1
M  RAD  1   1   2
M  END
$$$$

     RDKit          3D

 37 37  0  0  0  0  0  0  0  0999 V2000
   -1.5415    0.4262   -2.4716 S   0  0  0  0  0  2  0  0  0  0  0  0
   -0.8601   -0.9277   -3.9586 Si  0  0  0  0  0  4  0  0  0  0  0  0
    0.3490   -1.6769   -3.5188 H   0  0  0  0  0  0  0  0  0  0  0  0
   -1.8597   -1.9323   -4.3168 H   0  0  0  0  0  0  0  0  0  0  0  0
   -3.6633    0.6000   -2.4306 Si  0  0  0  0  0  4  0  0  0  0  0  0
   -4.2613   -0.6528   -1.9871 H   0  0  0  0  0  0  0  0  0  0  0  0
   -4.0022    1.6225   -1.4091 H   0  0  0  0  0  0  0  0  0  0  0  0
   -4.5147    1.2007   -4.3847 Si  0  0  0  0  0  4  0  0  0  0  0  0
   -5.2535   -0.5352   -5.5528 Si  0  0  0  0  0  4  0  0  0  0  0  0
    1.6338    1.2322   -5.6077 Si  0  0  0  0  0  4  0  0  0  0  0  0
   -0.3620    0.2900   -5.7847 Si  0  0  0  0  0  4  0  0  0  0  0  0
   -0.4899   -0.5418   -6.9878 H   0  0  0  0  0  0  0  0  0  0  0  0
   -1.3952    1.3397   -5.8761 H   0  0  0  0  0  0  0  0  0  0  0  0
   -4.0594   -0.9056   -7.3786 Si  0  0  0  0  0  4  0  0  0  0  0  0
    2.9088    0.4489   -7.2951 Si  0  0  0  0  0  4  0  0  0  0  0  0
   -3.6798    0.9524   -8.5368 Si  0  0  0  0  0  4  0  0  0  0  0  0
    1.5092   -0.0484   -8.9887 Si  0  0  0  0  0  4  0  0  0  0  0  0
   -6.6712   -0.3538   -5.9724 H   0  0  0  0  0  0  0  0  0  0  0  0
   -5.2204   -1.7228   -4.7060 H   0  0  0  0  0  0  0  0  0  0  0  0
   -4.7941   -1.8376   -8.2475 H   0  0  0  0  0  0  0  0  0  0  0  0
   -2.7901   -1.5819   -7.0185 H   0  0  0  0  0  0  0  0  0  0  0  0
    2.2963   -0.1573  -10.2040 H   0  0  0  0  0  0  0  0  0  0  0  0
    0.8418   -1.3369   -8.6576 H   0  0  0  0  0  0  0  0  0  0  0  0
   -1.9782    0.6423   -9.9689 Si  0  0  0  0  0  4  0  0  0  0  0  0
   -1.7996   -0.7933  -10.2321 H   0  0  0  0  0  0  0  0  0  0  0  0
   -2.2634    1.2771  -11.2702 H   0  0  0  0  0  0  0  0  0  0  0  0
   -0.0891    1.5015   -9.1676 Si  0  0  0  0  0  4  0  0  0  0  0  0
    0.4341    2.5643  -10.0707 H   0  0  0  0  0  0  0  0  0  0  0  0
   -0.3700    2.1519   -7.8886 H   0  0  0  0  0  0  0  0  0  0  0  0
   -4.8981    1.2317   -9.3362 H   0  0  0  0  0  0  0  0  0  0  0  0
   -3.4194    2.1052   -7.6608 H   0  0  0  0  0  0  0  0  0  0  0  0
    3.9113    1.4157   -7.6986 H   0  0  0  0  0  0  0  0  0  0  0  0
    3.5551   -0.7787   -6.7834 H   0  0  0  0  0  0  0  0  0  0  0  0
    1.5180    2.7012   -5.8288 H   0  0  0  0  0  0  0  0  0  0  0  0
    2.2663    0.9872   -4.3140 H   0  0  0  0  0  0  0  0  0  0  0  0
   -5.6905    2.0763   -4.1081 H   0  0  0  0  0  0  0  0  0  0  0  0
   -3.5833    2.0322   -5.1739 H   0  0  0  0  0  0  0  0  0  0  0  0
  1  2  1  0
  1  5  1  0
  2  3  1  0
  2  4  1  0
  2 11  1  0
  5  6  1  0
  5  7  1  0
  5  8  1  0
  8  9  1  0
  8 36  1  0
  8 37  1  0
  9 14  1  0
  9 18  1  0
  9 19  1  0
 10 11  1  0
 10 15  1  0
 10 34  1  0
 10 35  1  0
 11 12  1  0
 11 13  1  0
 14 16  1  0
 14 20  1  0
 14 21  1  0
 15 17  1  0
 15 32  1  0
 15 33  1  0
 16 24  1  0
 16 30  1  0
 16 31  1  0
 17 22  1  0
 17 23  1  0
 17 27  1  0
 24 25  1  0
 24 26  1  0
 24 27  1  0
 27 28  1  0
 27 29  1  0
M  CHG  1   1   1
M  RAD  1   1   2
M  END
$$$$
