
     RDKit          3D

 37 37  0  0  0  0  0  0  0  0999 V2000
    0.0000    0.0000    2.5754 S   0  0  0  0  0  2  0  0  0  0  0  0
   -0.3434   -1.7953    3.6793 Si  0  0  0  0  0  4  0  0  0  0  0  0
   -1.4350   -1.6106    4.6358 H   0  0  0  0  0  0  0  0  0  0  0  0
   -0.6035   -2.8978    2.7725 H   0  0  0  0  0  0  0  0  0  0  0  0
   -0.7203    1.7293    3.5883 Si  0  0  0  0  0  4  0  0  0  0  0  0
   -1.4508    2.5826    2.6188 H   0  0  0  0  0  0  0  0  0  0  0  0
    0.4244    2.5190    4.0986 H   0  0  0  0  0  0  0  0  0  0  0  0
   -2.1256    1.2298    5.2310 Si  0  0  0  0  0  4  0  0  0  0  0  0
   -0.9892    1.0181    7.1421 Si  0  0  0  0  0  4  0  0  0  0  0  0
    1.2227   -4.0622    6.1264 Si  0  0  0  0  0  4  0  0  0  0  0  0
    1.5058   -2.2852    4.8444 Si  0  0  0  0  0  4  0  0  0  0  0  0
    1.8360   -1.1253    5.6554 H   0  0  0  0  0  0  0  0  0  0  0  0
    2.6357   -2.5573    3.9207 H   0  0  0  0  0  0  0  0  0  0  0  0
   -0.1869    3.0415    7.7014 Si  0  0  0  0  0  4  0  0  0  0  0  0
    0.9458   -3.4852    8.2857 Si  0  0  0  0  0  4  0  0  0  0  0  0
    1.4915    2.7470    9.1220 Si  0  0  0  0  0  4  0  0  0  0  0  0
    2.8075   -2.7035    9.1631 Si  0  0  0  0  0  4  0  0  0  0  0  0
   -1.8638    0.4905    8.2038 H   0  0  0  0  0  0  0  0  0  0  0  0
    0.1421    0.0945    6.9669 H   0  0  0  0  0  0  0  0  0  0  0  0
    0.2899    3.6840    6.4508 H   0  0  0  0  0  0  0  0  0  0  0  0
   -1.2382    3.8915    8.2707 H   0  0  0  0  0  0  0  0  0  0  0  0
    2.8742   -3.0420   10.5747 H   0  0  0  0  0  0  0  0  0  0  0  0
    3.9537   -3.3576    8.4963 H   0  0  0  0  0  0  0  0  0  0  0  0
    1.4985    0.6540    9.9517 Si  0  0  0  0  0  4  0  0  0  0  0  0
    0.1567    0.1208    9.8310 H   0  0  0  0  0  0  0  0  0  0  0  0
    1.8403    0.7815   11.3930 H   0  0  0  0  0  0  0  0  0  0  0  0
    3.0401   -0.5117    8.9009 Si  0  0  0  0  0  4  0  0  0  0  0  0
    3.0424   -0.1390    7.4807 H   0  0  0  0  0  0  0  0  0  0  0  0
    4.3675   -0.1370    9.4357 H   0  0  0  0  0  0  0  0  0  0  0  0
    2.7624    3.0042    8.3981 H   0  0  0  0  0  0  0  0  0  0  0  0
    1.4140    3.7399   10.2008 H   0  0  0  0  0  0  0  0  0  0  0  0
   -0.2038   -2.5996    8.4460 H   0  0  0  0  0  0  0  0  0  0  0  0
    0.6011   -4.7508    8.9961 H   0  0  0  0  0  0  0  0  0  0  0  0
    2.3636   -4.9862    6.0509 H   0  0  0  0  0  0  0  0  0  0  0  0
    0.0306   -4.8207    5.6951 H   0  0  0  0  0  0  0  0  0  0  0  0
   -3.1539    2.2621    5.4285 H   0  0  0  0  0  0  0  0  0  0  0  0
   -2.8399   -0.0383    4.9885 H   0  0  0  0  0  0  0  0  0  0  0  0
  1  2  1  0
  1  5  1  0
  2  3  1  0
  2  4  1  0
  2 11  1  0
  5  6  1  0
  5  7  1  0
  5  8  1  0
  8  9  1  0
  8 36  1  0
  8 37  1  0
  9 14  1  0
  9 18  1  0
  9 19  1  0
 10 11  1  0
 10 15  1  0
 10 34  1  0
 10 35  1  0
 11 12  1  0
 11 13  1  0
 14 16  1  0
 14 20  1  0
 14 21  1  0
 15 17  1  0
 15 32  1  0
 15 33  1  0
 16 24  1  0
 16 30  1  0
 16 31  1  0
 17 22  1  0
 17 23  1  0
 17 27  1  0
 24 25  1  0
 24 26  1  0
 24 27  1  0
 27 28  1  0
 27 29  1  0
M  CHG  1   1   1
M  RAD  1   1   2
M  END
$$$$

     RDKit          3D

 37 37  0  0  0  0  0  0  0  0999 V2000
    0.0000    0.0000    2.5754 S   0  0  0  0  0  2  0  0  0  0  0  0
    1.4121   -1.5605    3.0051 Si  0  0  0  0  0  4  0  0  0  0  0  0
    2.3697   -1.6074    1.9003 H   0  0  0  0  0  0  0  0  0  0  0  0
    0.7104   -2.8269    3.0635 H   0  0  0  0  0  0  0  0  0  0  0  0
   -1.5636    0.0520    4.0567 Si  0  0  0  0  0  4  0  0  0  0  0  0
   -1.9607   -1.2909    4.4379 H   0  0  0  0  0  0  0  0  0  0  0  0
   -2.7423    0.6778    3.3925 H   0  0  0  0  0  0  0  0  0  0  0  0
   -0.9189    1.2774    5.7795 Si  0  0  0  0  0  4  0  0  0  0  0  0
   -1.7300    0.5079    7.7077 Si  0  0  0  0  0  4  0  0  0  0  0  0
    3.9214   -2.6092    5.4957 Si  0  0  0  0  0  4  0  0  0  0  0  0
    2.4623   -1.0540    4.8872 Si  0  0  0  0  0  4  0  0  0  0  0  0
    3.2274    0.2035    4.6475 H   0  0  0  0  0  0  0  0  0  0  0  0
    1.4859   -0.7625    5.9181 H   0  0  0  0  0  0  0  0  0  0  0  0
   -1.0920   -1.5518    8.1416 Si  0  0  0  0  0  4  0  0  0  0  0  0
    3.0692   -4.6460    5.4664 Si  0  0  0  0  0  4  0  0  0  0  0  0
   -2.4878   -3.0843    7.3506 Si  0  0  0  0  0  4  0  0  0  0  0  0
    1.7244   -5.0515    7.1738 Si  0  0  0  0  0  4  0  0  0  0  0  0
   -3.1771    0.6247    7.7281 H   0  0  0  0  0  0  0  0  0  0  0  0
   -1.2071    1.3950    8.7798 H   0  0  0  0  0  0  0  0  0  0  0  0
   -1.0452   -1.7206    9.6230 H   0  0  0  0  0  0  0  0  0  0  0  0
    0.2563   -1.8679    7.6577 H   0  0  0  0  0  0  0  0  0  0  0  0
    2.3407   -6.1006    8.0356 H   0  0  0  0  0  0  0  0  0  0  0  0
    1.5238   -3.8842    8.0402 H   0  0  0  0  0  0  0  0  0  0  0  0
   -1.5830   -4.3017    5.7369 Si  0  0  0  0  0  4  0  0  0  0  0  0
   -2.6850   -4.9502    4.9862 H   0  0  0  0  0  0  0  0  0  0  0  0
   -0.8690   -3.4575    4.7577 H   0  0  0  0  0  0  0  0  0  0  0  0
   -0.2470   -5.8876    6.4987 Si  0  0  0  0  0  4  0  0  0  0  0  0
   -0.9152   -6.5940    7.5895 H   0  0  0  0  0  0  0  0  0  0  0  0
    0.0336   -6.8238    5.3775 H   0  0  0  0  0  0  0  0  0  0  0  0
   -3.7049   -2.4009    6.8490 H   0  0  0  0  0  0  0  0  0  0  0  0
   -2.9395   -4.0220    8.4163 H   0  0  0  0  0  0  0  0  0  0  0  0
    4.2043   -5.6126    5.4605 H   0  0  0  0  0  0  0  0  0  0  0  0
    2.3716   -4.8421    4.1856 H   0  0  0  0  0  0  0  0  0  0  0  0
    5.0542   -2.5605    4.5443 H   0  0  0  0  0  0  0  0  0  0  0  0
    4.4602   -2.2419    6.8108 H   0  0  0  0  0  0  0  0  0  0  0  0
   -1.4761    2.6464    5.5975 H   0  0  0  0  0  0  0  0  0  0  0  0
    0.5400    1.4424    5.8499 H   0  0  0  0  0  0  0  0  0  0  0  0
  1  2  1  0
  1  5  1  0
  2  3  1  0
  2  4  1  0
  2 11  1  0
  5  6  1  0
  5  7  1  0
  5  8  1  0
  8  9  1  0
  8 36  1  0
  8 37  1  0
  9 14  1  0
  9 18  1  0
  9 19  1  0
 10 11  1  0
 10 15  1  0
 10 34  1  0
 10 35  1  0
 11 12  1  0
 11 13  1  0
 14 16  1  0
 14 20  1  0
 14 21  1  0
 15 17  1  0
 15 32  1  0
 15 33  1  0
 16 24  1  0
 16 30  1  0
 16 31  1  0
 17 22  1  0
 17 23  1  0
 17 27  1  0
 24 25  1  0
 24 26  1  0
 24 27  1  0
 27 28  1  0
 27 29  1  0
M  CHG  1   1   1
M  RAD  1   1   2
M  END
$$$$

     RDKit          3D

 37 37  0  0  0  0  0  0  0  0999 V2000
    0.0000    0.0000    2.5754 S   0  0  0  0  0  2  0  0  0  0  0  0
   -0.1398    1.8225    3.6793 Si  0  0  0  0  0  4  0  0  0  0  0  0
    0.9621    1.9307    4.6358 H   0  0  0  0  0  0  0  0  0  0  0  0
   -0.1781    2.9546    2.7725 H   0  0  0  0  0  0  0  0  0  0  0  0
    1.1489   -1.4797    3.5883 Si  0  0  0  0  0  4  0  0  0  0  0  0
    2.0776   -2.1114    2.6188 H   0  0  0  0  0  0  0  0  0  0  0  0
    0.2515   -2.5420    4.0986 H   0  0  0  0  0  0  0  0  0  0  0  0
    2.3738   -0.6289    5.2310 Si  0  0  0  0  0  4  0  0  0  0  0  0
    1.2217   -0.7228    7.1421 Si  0  0  0  0  0  4  0  0  0  0  0  0
   -2.2458    3.5990    6.1264 Si  0  0  0  0  0  4  0  0  0  0  0  0
   -2.0527    1.8100    4.8444 Si  0  0  0  0  0  4  0  0  0  0  0  0
   -2.0669    0.6041    5.6554 H   0  0  0  0  0  0  0  0  0  0  0  0
   -3.2144    1.7761    3.9207 H   0  0  0  0  0  0  0  0  0  0  0  0
    0.9785   -2.8859    7.7014 Si  0  0  0  0  0  4  0  0  0  0  0  0
   -1.8271    3.1149    8.2857 Si  0  0  0  0  0  4  0  0  0  0  0  0
   -0.7184   -3.0421    9.1220 Si  0  0  0  0  0  4  0  0  0  0  0  0
   -3.4185    1.8721    9.1631 Si  0  0  0  0  0  4  0  0  0  0  0  0
    1.9272    0.0157    8.2038 H   0  0  0  0  0  0  0  0  0  0  0  0
   -0.1123   -0.1285    6.9669 H   0  0  0  0  0  0  0  0  0  0  0  0
    0.6869   -3.6310    6.4508 H   0  0  0  0  0  0  0  0  0  0  0  0
    2.2159   -3.4303    8.2707 H   0  0  0  0  0  0  0  0  0  0  0  0
   -3.5717    2.1812   10.5747 H   0  0  0  0  0  0  0  0  0  0  0  0
   -4.6962    2.2025    8.4963 H   0  0  0  0  0  0  0  0  0  0  0  0
   -1.2744   -1.0243    9.9517 Si  0  0  0  0  0  4  0  0  0  0  0  0
   -0.1195   -0.1577    9.8310 H   0  0  0  0  0  0  0  0  0  0  0  0
   -1.5707   -1.2370   11.3930 H   0  0  0  0  0  0  0  0  0  0  0  0
   -3.0678   -0.3040    8.9009 Si  0  0  0  0  0  4  0  0  0  0  0  0
   -2.9722   -0.6642    7.4807 H   0  0  0  0  0  0  0  0  0  0  0  0
   -4.2504   -1.0139    9.4357 H   0  0  0  0  0  0  0  0  0  0  0  0
   -1.8773   -3.6238    8.3981 H   0  0  0  0  0  0  0  0  0  0  0  0
   -0.3830   -3.9799   10.2008 H   0  0  0  0  0  0  0  0  0  0  0  0
   -0.4855    2.5620    8.4460 H   0  0  0  0  0  0  0  0  0  0  0  0
   -1.8266    4.4266    8.9961 H   0  0  0  0  0  0  0  0  0  0  0  0
   -3.5892    4.1913    6.0509 H   0  0  0  0  0  0  0  0  0  0  0  0
   -1.2945    4.6438    5.6951 H   0  0  0  0  0  0  0  0  0  0  0  0
    3.6370   -1.3552    5.4285 H   0  0  0  0  0  0  0  0  0  0  0  0
    2.7304    0.7822    4.9885 H   0  0  0  0  0  0  0  0  0  0  0  0
  1  2  1  0
  1  5  1  0
  2  3  1  0
  2  4  1  0
  2 11  1  0
  5  6  1  0
  5  7  1  0
  5  8  1  0
  8  9  1  0
  8 36  1  0
  8 37  1  0
  9 14  1  0
  9 18  1  0
  9 19  1  0
 10 11  1  0
 10 15  1  0
 10 34  1  0
 10 35  1  0
 11 12  1  0
 11 13  1  0
 14 16  1  0
 14 20  1  0
 14 21  1  0
 15 17  1  0
 15 32  1  0
 15 33  1  0
 16 24  1  0
 16 30  1  0
 16 31  1  0
 17 22  1  0
 17 23  1  0
 17 27  1  0
 24 25  1  0
 24 26  1  0
 24 27  1  0
 27 28  1  0
 27 29  1  0
M  CHG  1   1   1
M  RAD  1   1   2
M  END
$$$$

     RDKit          3D

 37 37  0  0  0  0  0  0  0  0999 V2000
    0.0000    0.0000    2.5754 S   0  0  0  0  0  2  0  0  0  0  0  0
   -1.1398   -1.7435    3.0587 Si  0  0  0  0  0  4  0  0  0  0  0  0
   -1.0570   -2.7012    1.9612 H   0  0  0  0  0  0  0  0  0  0  0  0
   -2.5391   -1.3380    3.2154 H   0  0  0  0  0  0  0  0  0  0  0  0
    0.3886    1.1969    4.2979 Si  0  0  0  0  0  4  0  0  0  0  0  0
    1.0114    0.3853    5.3335 H   0  0  0  0  0  0  0  0  0  0  0  0
    1.3803    2.2305    3.9047 H   0  0  0  0  0  0  0  0  0  0  0  0
   -1.4315    2.2470    5.0227 Si  0  0  0  0  0  4  0  0  0  0  0  0
   -2.7826    0.8997    6.1570 Si  0  0  0  0  0  4  0  0  0  0  0  0
   -1.1270   -4.8253    5.0557 Si  0  0  0  0  0  4  0  0  0  0  0  0
   -0.4448   -2.6945    4.9465 Si  0  0  0  0  0  4  0  0  0  0  0  0
    1.0227   -2.5967    5.1052 H   0  0  0  0  0  0  0  0  0  0  0  0
   -1.0411   -1.9883    6.0799 H   0  0  0  0  0  0  0  0  0  0  0  0
   -2.3103    0.8536    8.3221 Si  0  0  0  0  0  4  0  0  0  0  0  0
   -1.7726   -5.3111    7.1427 Si  0  0  0  0  0  4  0  0  0  0  0  0
   -0.4247   -0.1885    8.7760 Si  0  0  0  0  0  4  0  0  0  0  0  0
   -3.4637   -3.9709    7.7653 Si  0  0  0  0  0  4  0  0  0  0  0  0
   -2.7705   -0.4145    5.5393 H   0  0  0  0  0  0  0  0  0  0  0  0
   -4.1641    1.4323    6.0135 H   0  0  0  0  0  0  0  0  0  0  0  0
   -2.1808    2.2649    8.7795 H   0  0  0  0  0  0  0  0  0  0  0  0
   -3.4384    0.2862    9.0655 H   0  0  0  0  0  0  0  0  0  0  0  0
   -4.6476   -4.7753    8.1489 H   0  0  0  0  0  0  0  0  0  0  0  0
   -3.8508   -3.0785    6.6868 H   0  0  0  0  0  0  0  0  0  0  0  0
   -0.7044   -2.2837    9.4142 Si  0  0  0  0  0  4  0  0  0  0  0  0
   -0.0572   -2.5491   10.7271 H   0  0  0  0  0  0  0  0  0  0  0  0
   -0.0681   -3.2346    8.4669 H   0  0  0  0  0  0  0  0  0  0  0  0
   -2.8429   -2.8438    9.6058 Si  0  0  0  0  0  4  0  0  0  0  0  0
   -3.0254   -3.7877   10.7458 H   0  0  0  0  0  0  0  0  0  0  0  0
   -3.7125   -1.7081    9.8618 H   0  0  0  0  0  0  0  0  0  0  0  0
    0.3079    0.5261    9.8532 H   0  0  0  0  0  0  0  0  0  0  0  0
    0.4764   -0.1773    7.6044 H   0  0  0  0  0  0  0  0  0  0  0  0
   -2.1928   -6.7121    7.1683 H   0  0  0  0  0  0  0  0  0  0  0  0
   -0.6397   -5.1555    8.0633 H   0  0  0  0  0  0  0  0  0  0  0  0
   -0.0615   -5.7506    4.6853 H   0  0  0  0  0  0  0  0  0  0  0  0
   -2.2627   -4.9805    4.1508 H   0  0  0  0  0  0  0  0  0  0  0  0
   -2.1777    2.7114    3.8201 H   0  0  0  0  0  0  0  0  0  0  0  0
   -1.0857    3.4325    5.8059 H   0  0  0  0  0  0  0  0  0  0  0  0
  1  2  1  0
  1  5  1  0
  2  3  1  0
  2  4  1  0
  2 11  1  0
  5  6  1  0
  5  7  1  0
  5  8  1  0
  8  9  1  0
  8 36  1  0
  8 37  1  0
  9 14  1  0
  9 18  1  0
  9 19  1  0
 10 11  1  0
 10 15  1  0
 10 34  1  0
 10 35  1  0
 11 12  1  0
 11 13  1  0
 14 16  1  0
 14 20  1  0
 14 21  1  0
 15 17  1  0
 15 32  1  0
 15 33  1  0
 16 24  1  0
 16 30  1  0
 16 31  1  0
 17 22  1  0
 17 23  1  0
 17 27  1  0
 24 25  1  0
 24 26  1  0
 24 27  1  0
 27 28  1  0
 27 29  1  0
M  CHG  1   1   1
M  RAD  1   1   2
M  END
$$$$

     RDKit          3D

 37 37  0  0  0  0  0  0  0  0999 V2000
    0.0000    0.0000    2.5754 S   0  0  0  0  0  2  0  0  0  0  0  0
   -0.1349   -1.8228    3.6793 Si  0  0  0  0  0  4  0  0  0  0  0  0
   -1.2406   -1.7648    4.6358 H   0  0  0  0  0  0  0  0  0  0  0  0
   -0.2667   -2.9479    2.7725 H   0  0  0  0  0  0  0  0  0  0  0  0
   -0.9142    1.6352    3.5883 Si  0  0  0  0  0  4  0  0  0  0  0  0
   -1.7378    2.3989    2.6188 H   0  0  0  0  0  0  0  0  0  0  0  0
    0.1323    2.5510    4.0986 H   0  0  0  0  0  0  0  0  0  0  0  0
   -2.2527    0.9775    5.2310 Si  0  0  0  0  0  4  0  0  0  0  0  0
   -1.0996    0.8977    7.1421 Si  0  0  0  0  0  4  0  0  0  0  0  0
    1.6811   -3.8949    6.1264 Si  0  0  0  0  0  4  0  0  0  0  0  0
    1.7583   -2.0971    4.8444 Si  0  0  0  0  0  4  0  0  0  0  0  0
    1.9531   -0.9070    5.6554 H   0  0  0  0  0  0  0  0  0  0  0  0
    2.9119   -2.2377    3.9207 H   0  0  0  0  0  0  0  0  0  0  0  0
   -0.5350    2.9999    7.7014 Si  0  0  0  0  0  4  0  0  0  0  0  0
    1.3398   -3.3535    8.2857 Si  0  0  0  0  0  4  0  0  0  0  0  0
    1.1661    2.9001    9.1220 Si  0  0  0  0  0  4  0  0  0  0  0  0
    3.0994   -2.3632    9.1631 Si  0  0  0  0  0  4  0  0  0  0  0  0
   -1.9078    0.2733    8.2038 H   0  0  0  0  0  0  0  0  0  0  0  0
    0.1303    0.1102    6.9669 H   0  0  0  0  0  0  0  0  0  0  0  0
   -0.1351    3.6929    6.4508 H   0  0  0  0  0  0  0  0  0  0  0  0
   -1.6769    3.7236    8.2707 H   0  0  0  0  0  0  0  0  0  0  0  0
    3.2045   -2.6917   10.5747 H   0  0  0  0  0  0  0  0  0  0  0  0
    4.3132   -2.8813    8.4963 H   0  0  0  0  0  0  0  0  0  0  0  0
    1.4135    0.8217    9.9517 Si  0  0  0  0  0  4  0  0  0  0  0  0
    0.1418    0.1380    9.8310 H   0  0  0  0  0  0  0  0  0  0  0  0
    1.7383    0.9877   11.3930 H   0  0  0  0  0  0  0  0  0  0  0  0
    3.0787   -0.1592    8.9009 Si  0  0  0  0  0  4  0  0  0  0  0  0
    3.0382    0.2113    7.4807 H   0  0  0  0  0  0  0  0  0  0  0  0
    4.3544    0.3655    9.4357 H   0  0  0  0  0  0  0  0  0  0  0  0
    2.3991    3.3016    8.3981 H   0  0  0  0  0  0  0  0  0  0  0  0
    0.9751    3.8776   10.2008 H   0  0  0  0  0  0  0  0  0  0  0  0
    0.0961   -2.6058    8.4460 H   0  0  0  0  0  0  0  0  0  0  0  0
    1.1427   -4.6503    8.9961 H   0  0  0  0  0  0  0  0  0  0  0  0
    2.9206   -4.6818    6.0509 H   0  0  0  0  0  0  0  0  0  0  0  0
    0.5840   -4.7853    5.6951 H   0  0  0  0  0  0  0  0  0  0  0  0
   -3.3929    1.8849    5.4285 H   0  0  0  0  0  0  0  0  0  0  0  0
   -2.8167   -0.3642    4.9885 H   0  0  0  0  0  0  0  0  0  0  0  0
  1  2  1  0
  1  5  1  0
  2  3  1  0
  2  4  1  0
  2 11  1  0
  5  6  1  0
  5  7  1  0
  5  8  1  0
  8  9  1  0
  8 36  1  0
  8 37  1  0
  9 14  1  0
  9 18  1  0
  9 19  1  0
 10 11  1  0
 10 15  1  0
 10 34  1  0
 10 35  1  0
 11 12  1  0
 11 13  1  0
 14 16  1  0
 14 20  1  0
 14 21  1  0
 15 17  1  0
 15 32  1  0
 15 33  1  0
 16 24  1  0
 16 30  1  0
 16 31  1  0
 17 22  1  0
 17 23  1  0
 17 27  1  0
 24 25  1  0
 24 26  1  0
 24 27  1  0
 27 28  1  0
 27 29  1  0
M  CHG  1   1   1
M  RAD  1   1   2
M  END
$$$$

     RDKit          3D

 37 37  0  0  0  0  0  0  0  0999 V2000
    0.0000    0.0000    2.5754 S   0  0  0  0  0  2  0  0  0  0  0  0
   -1.6415   -0.2406    3.8406 Si  0  0  0  0  0  4  0  0  0  0  0  0
   -1.3219   -1.2192    4.9147 H   0  0  0  0  0  0  0  0  0  0  0  0
   -2.7562   -0.8664    3.0720 H   0  0  0  0  0  0  0  0  0  0  0  0
    1.3459    1.5321    3.0375 Si  0  0  0  0  0  4  0  0  0  0  0  0
    0.9061    2.8738    2.5578 H   0  0  0  0  0  0  0  0  0  0  0  0
    2.6187    1.2679    2.3029 H   0  0  0  0  0  0  0  0  0  0  0  0
    1.8424    1.7152    5.1813 Si  0  0  0  0  0  4  0  0  0  0  0  0
    1.1965    3.6633    6.0446 Si  0  0  0  0  0  4  0  0  0  0  0  0
   -2.5367    1.3653    7.0140 Si  0  0  0  0  0  4  0  0  0  0  0  0
   -2.3987    1.5999    4.7726 Si  0  0  0  0  0  4  0  0  0  0  0  0
   -3.7892    1.9070    4.3310 H   0  0  0  0  0  0  0  0  0  0  0  0
   -1.5645    2.7602    4.4738 H   0  0  0  0  0  0  0  0  0  0  0  0
    1.5411    5.3524    4.6449 Si  0  0  0  0  0  4  0  0  0  0  0  0
   -3.5460    3.1584    7.8879 Si  0  0  0  0  0  4  0  0  0  0  0  0
   -0.3557    6.4321    4.2058 Si  0  0  0  0  0  4  0  0  0  0  0  0
   -4.9030    4.0891    6.3812 Si  0  0  0  0  0  4  0  0  0  0  0  0
   -0.2133    3.6226    6.3846 H   0  0  0  0  0  0  0  0  0  0  0  0
    1.9453    3.8444    7.3170 H   0  0  0  0  0  0  0  0  0  0  0  0
    2.5103    6.2684    5.2653 H   0  0  0  0  0  0  0  0  0  0  0  0
    2.1229    4.8505    3.4038 H   0  0  0  0  0  0  0  0  0  0  0  0
   -5.8251    3.0882    5.8401 H   0  0  0  0  0  0  0  0  0  0  0  0
   -5.6728    5.1453    7.0887 H   0  0  0  0  0  0  0  0  0  0  0  0
   -1.9250    6.0330    5.7081 Si  0  0  0  0  0  4  0  0  0  0  0  0
   -2.4051    7.2919    6.3464 H   0  0  0  0  0  0  0  0  0  0  0  0
   -1.4897    5.1609    6.7925 H   0  0  0  0  0  0  0  0  0  0  0  0
   -3.7386    5.0933    4.7669 Si  0  0  0  0  0  4  0  0  0  0  0  0
   -3.3723    4.1822    3.6907 H   0  0  0  0  0  0  0  0  0  0  0  0
   -4.6136    6.1322    4.1785 H   0  0  0  0  0  0  0  0  0  0  0  0
   -0.8022    6.0705    2.8545 H   0  0  0  0  0  0  0  0  0  0  0  0
   -0.0740    7.8880    4.2125 H   0  0  0  0  0  0  0  0  0  0  0  0
   -2.5687    4.1758    8.3138 H   0  0  0  0  0  0  0  0  0  0  0  0
   -4.3395    2.7428    9.0472 H   0  0  0  0  0  0  0  0  0  0  0  0
   -3.2059    0.1241    7.3683 H   0  0  0  0  0  0  0  0  0  0  0  0
   -1.1278    1.3961    7.5013 H   0  0  0  0  0  0  0  0  0  0  0  0
    1.2303    0.6113    5.9340 H   0  0  0  0  0  0  0  0  0  0  0  0
    3.3104    1.6073    5.4249 H   0  0  0  0  0  0  0  0  0  0  0  0
  1  2  1  0
  1  5  1  0
  2  3  1  0
  2  4  1  0
  2 11  1  0
  5  6  1  0
  5  7  1  0
  5  8  1  0
  8  9  1  0
  8 36  1  0
  8 37  1  0
  9 14  1  0
  9 18  1  0
  9 19  1  0
 10 11  1  0
 10 15  1  0
 10 34  1  0
 10 35  1  0
 11 12  1  0
 11 13  1  0
 14 16  1  0
 14 20  1  0
 14 21  1  0
 15 17  1  0
 15 32  1  0
 15 33  1  0
 16 24  1  0
 16 30  1  0
 16 31  1  0
 17 22  1  0
 17 23  1  0
 17 27  1  0
 24 25  1  0
 24 26  1  0
 24 27  1  0
 27 28  1  0
 27 29  1  0
M  CHG  1   1   1
M  RAD  1   1   2
M  END
$$$$

     RDKit          3D

 37 37  0  0  0  0  0  0  0  0999 V2000
    0.0000    0.0000    2.5754 S   0  0  0  0  0  2  0  0  0  0  0  0
   -1.2307   -1.6806    3.0587 Si  0  0  0  0  0  4  0  0  0  0  0  0
   -1.1987   -2.6414    1.9612 H   0  0  0  0  0  0  0  0  0  0  0  0
   -2.6064   -1.2015    3.2154 H   0  0  0  0  0  0  0  0  0  0  0  0
    0.4515    1.1746    4.2979 Si  0  0  0  0  0  4  0  0  0  0  0  0
    1.0304    0.3311    5.3335 H   0  0  0  0  0  0  0  0  0  0  0  0
    1.4966    2.1541    3.9047 H   0  0  0  0  0  0  0  0  0  0  0  0
   -1.3103    2.3198    5.0227 Si  0  0  0  0  0  4  0  0  0  0  0  0
   -2.7309    1.0460    6.1570 Si  0  0  0  0  0  4  0  0  0  0  0  0
   -1.3812   -4.7587    5.0557 Si  0  0  0  0  0  4  0  0  0  0  0  0
   -0.5870   -2.6672    4.9465 Si  0  0  0  0  0  4  0  0  0  0  0  0
    0.8836   -2.6472    5.1052 H   0  0  0  0  0  0  0  0  0  0  0  0
   -1.1451   -1.9303    6.0799 H   0  0  0  0  0  0  0  0  0  0  0  0
   -2.2617    0.9749    8.3221 Si  0  0  0  0  0  4  0  0  0  0  0  0
   -2.0517   -5.2096    7.1427 Si  0  0  0  0  0  4  0  0  0  0  0  0
   -0.4341   -0.1657    8.7760 Si  0  0  0  0  0  4  0  0  0  0  0  0
   -3.6694   -3.7816    7.7653 Si  0  0  0  0  0  4  0  0  0  0  0  0
   -2.7886   -0.2670    5.5393 H   0  0  0  0  0  0  0  0  0  0  0  0
   -4.0823    1.6511    6.0135 H   0  0  0  0  0  0  0  0  0  0  0  0
   -2.0576    2.3773    8.7795 H   0  0  0  0  0  0  0  0  0  0  0  0
   -3.4184    0.4682    9.0655 H   0  0  0  0  0  0  0  0  0  0  0  0
   -4.8942   -4.5221    8.1489 H   0  0  0  0  0  0  0  0  0  0  0  0
   -4.0086   -2.8699    6.6868 H   0  0  0  0  0  0  0  0  0  0  0  0
   -0.8245   -2.2431    9.4142 Si  0  0  0  0  0  4  0  0  0  0  0  0
   -0.1923   -2.5425   10.7271 H   0  0  0  0  0  0  0  0  0  0  0  0
   -0.2395   -3.2265    8.4669 H   0  0  0  0  0  0  0  0  0  0  0  0
   -2.9897   -2.6891    9.6058 Si  0  0  0  0  0  4  0  0  0  0  0  0
   -3.2219   -3.6220   10.7458 H   0  0  0  0  0  0  0  0  0  0  0  0
   -3.7979   -1.5088    9.8618 H   0  0  0  0  0  0  0  0  0  0  0  0
    0.3353    0.5090    9.8532 H   0  0  0  0  0  0  0  0  0  0  0  0
    0.4663   -0.2024    7.6044 H   0  0  0  0  0  0  0  0  0  0  0  0
   -2.5456   -6.5864    7.1683 H   0  0  0  0  0  0  0  0  0  0  0  0
   -0.9122   -5.1143    8.0633 H   0  0  0  0  0  0  0  0  0  0  0  0
   -0.3664   -5.7393    4.6853 H   0  0  0  0  0  0  0  0  0  0  0  0
   -2.5236   -4.8535    4.1508 H   0  0  0  0  0  0  0  0  0  0  0  0
   -2.0308    2.8231    3.8201 H   0  0  0  0  0  0  0  0  0  0  0  0
   -0.9022    3.4852    5.8059 H   0  0  0  0  0  0  0  0  0  0  0  0
  1  2  1  0
  1  5  1  0
  2  3  1  0
  2  4  1  0
  2 11  1  0
  5  6  1  0
  5  7  1  0
  5  8  1  0
  8  9  1  0
  8 36  1  0
  8 37  1  0
  9 14  1  0
  9 18  1  0
  9 19  1  0
 10 11  1  0
 10 15  1  0
 10 34  1  0
 10 35  1  0
 11 12  1  0
 11 13  1  0
 14 16  1  0
 14 20  1  0
 14 21  1  0
 15 17  1  0
 15 32  1  0
 15 33  1  0
 16 24  1  0
 16 30  1  0
 16 31  1  0
 17 22  1  0
 17 23  1  0
 17 27  1  0
 24 25  1  0
 24 26  1  0
 24 27  1  0
 27 28  1  0
 27 29  1  0
M  CHG  1   1   1
M  RAD  1   1   2
M  END
$$$$

     RDKit          3D

 37 37  0  0  0  0  0  0  0  0999 V2000
    0.0000    0.0000    2.5754 S   0  0  0  0  0  2  0  0  0  0  0  0
    1.3181    1.6129    3.0587 Si  0  0  0  0  0  4  0  0  0  0  0  0
    1.3372    2.5741    1.9612 H   0  0  0  0  0  0  0  0  0  0  0  0
    2.6665    1.0615    3.2154 H   0  0  0  0  0  0  0  0  0  0  0  0
   -0.5132   -1.1490    4.2979 Si  0  0  0  0  0  4  0  0  0  0  0  0
   -1.0465   -0.2760    5.3335 H   0  0  0  0  0  0  0  0  0  0  0  0
   -1.6088   -2.0717    3.9047 H   0  0  0  0  0  0  0  0  0  0  0  0
    1.1854   -2.3860    5.0227 Si  0  0  0  0  0  4  0  0  0  0  0  0
    2.6716   -1.1894    6.1570 Si  0  0  0  0  0  4  0  0  0  0  0  0
    1.6317    4.6787    5.0557 Si  0  0  0  0  0  4  0  0  0  0  0  0
    0.7277    2.6323    4.9465 Si  0  0  0  0  0  4  0  0  0  0  0  0
   -0.7419    2.6904    5.1052 H   0  0  0  0  0  0  0  0  0  0  0  0
    1.2459    1.8669    6.0799 H   0  0  0  0  0  0  0  0  0  0  0  0
    2.2068   -1.0935    8.3221 Si  0  0  0  0  0  4  0  0  0  0  0  0
    2.3252    5.0934    7.1427 Si  0  0  0  0  0  4  0  0  0  0  0  0
    0.4423    0.1424    8.7760 Si  0  0  0  0  0  4  0  0  0  0  0  0
    3.8648    3.5816    7.7653 Si  0  0  0  0  0  4  0  0  0  0  0  0
    2.7988    0.1187    5.5393 H   0  0  0  0  0  0  0  0  0  0  0  0
    3.9889   -1.8654    6.0135 H   0  0  0  0  0  0  0  0  0  0  0  0
    1.9286   -2.4831    8.7795 H   0  0  0  0  0  0  0  0  0  0  0  0
    3.3887   -0.6488    9.0655 H   0  0  0  0  0  0  0  0  0  0  0  0
    5.1273    4.2561    8.1489 H   0  0  0  0  0  0  0  0  0  0  0  0
    4.1552    2.6532    6.6868 H   0  0  0  0  0  0  0  0  0  0  0  0
    0.9423    2.1962    9.4142 Si  0  0  0  0  0  4  0  0  0  0  0  0
    0.3269    2.5287   10.7271 H   0  0  0  0  0  0  0  0  0  0  0  0
    0.4103    3.2092    8.4669 H   0  0  0  0  0  0  0  0  0  0  0  0
    3.1282    2.5267    9.6058 Si  0  0  0  0  0  4  0  0  0  0  0  0
    3.4096    3.4459   10.7458 H   0  0  0  0  0  0  0  0  0  0  0  0
    3.8726    1.3052    9.8618 H   0  0  0  0  0  0  0  0  0  0  0  0
   -0.3619   -0.4905    9.8532 H   0  0  0  0  0  0  0  0  0  0  0  0
   -0.4549    0.2268    7.6044 H   0  0  0  0  0  0  0  0  0  0  0  0
    2.8915    6.4420    7.1683 H   0  0  0  0  0  0  0  0  0  0  0  0
    1.1823    5.0587    8.0633 H   0  0  0  0  0  0  0  0  0  0  0  0
    0.6704    5.7118    4.6853 H   0  0  0  0  0  0  0  0  0  0  0  0
    2.7776    4.7128    4.1508 H   0  0  0  0  0  0  0  0  0  0  0  0
    1.8782   -2.9268    3.8201 H   0  0  0  0  0  0  0  0  0  0  0  0
    0.7160   -3.5282    5.8059 H   0  0  0  0  0  0  0  0  0  0  0  0
  1  2  1  0
  1  5  1  0
  2  3  1  0
  2  4  1  0
  2 11  1  0
  5  6  1  0
  5  7  1  0
  5  8  1  0
  8  9  1  0
  8 36  1  0
  8 37  1  0
  9 14  1  0
  9 18  1  0
  9 19  1  0
 10 11  1  0
 10 15  1  0
 10 34  1  0
 10 35  1  0
 11 12  1  0
 11 13  1  0
 14 16  1  0
 14 20  1  0
 14 21  1  0
 15 17  1  0
 15 32  1  0
 15 33  1  0
 16 24  1  0
 16 30  1  0
 16 31  1  0
 17 22  1  0
 17 23  1  0
 17 27  1  0
 24 25  1  0
 24 26  1  0
 24 27  1  0
 27 28  1  0
 27 29  1  0
M  CHG  1   1   1
M  RAD  1   1   2
M  END
$$$$

     RDKit          3D

 37 37  0  0  0  0  0  0  0  0999 V2000
    0.0000    0.0000    2.5754 S   0  0  0  0  0  2  0  0  0  0  0  0
   -0.8598   -1.6130    3.6793 Si  0  0  0  0  0  4  0  0  0  0  0  0
   -1.8478   -1.1132    4.6358 H   0  0  0  0  0  0  0  0  0  0  0  0
   -1.4348   -2.5889    2.7725 H   0  0  0  0  0  0  0  0  0  0  0  0
   -0.1757    1.8651    3.5883 Si  0  0  0  0  0  4  0  0  0  0  0  0
   -0.6206    2.8964    2.6188 H   0  0  0  0  0  0  0  0  0  0  0  0
    1.1516    2.2802    4.0986 H   0  0  0  0  0  0  0  0  0  0  0  0
   -1.6658    1.8043    5.2310 Si  0  0  0  0  0  4  0  0  0  0  0  0
   -0.6432    1.2654    7.1421 Si  0  0  0  0  0  4  0  0  0  0  0  0
   -0.0357   -4.2421    6.1264 Si  0  0  0  0  0  4  0  0  0  0  0  0
    0.7612   -2.6287    4.8444 Si  0  0  0  0  0  4  0  0  0  0  0  0
    1.4202   -1.6187    5.6554 H   0  0  0  0  0  0  0  0  0  0  0  0
    1.7597   -3.2233    3.9207 H   0  0  0  0  0  0  0  0  0  0  0  0
    0.7225    2.9603    7.7014 Si  0  0  0  0  0  4  0  0  0  0  0  0
   -0.1292   -3.6089    8.2857 Si  0  0  0  0  0  4  0  0  0  0  0  0
    2.2383    2.1819    9.1220 Si  0  0  0  0  0  4  0  0  0  0  0  0
    1.8805   -3.4139    9.1631 Si  0  0  0  0  0  4  0  0  0  0  0  0
   -1.6348    1.0207    8.2038 H   0  0  0  0  0  0  0  0  0  0  0  0
    0.1637    0.0482    6.9669 H   0  0  0  0  0  0  0  0  0  0  0  0
    1.3683    3.4327    6.4508 H   0  0  0  0  0  0  0  0  0  0  0  0
   -0.0297    4.0837    8.2707 H   0  0  0  0  0  0  0  0  0  0  0  0
    1.8439   -3.7569   10.5747 H   0  0  0  0  0  0  0  0  0  0  0  0
    2.7815   -4.3782    8.4963 H   0  0  0  0  0  0  0  0  0  0  0  0
    1.6250    0.1806    9.9517 Si  0  0  0  0  0  4  0  0  0  0  0  0
    0.1854    0.0690    9.8310 H   0  0  0  0  0  0  0  0  0  0  0  0
    1.9892    0.2013   11.3930 H   0  0  0  0  0  0  0  0  0  0  0  0
    2.7520   -1.3893    8.9009 Si  0  0  0  0  0  4  0  0  0  0  0  0
    2.8646   -1.0341    7.4807 H   0  0  0  0  0  0  0  0  0  0  0  0
    4.1309   -1.4247    9.4357 H   0  0  0  0  0  0  0  0  0  0  0  0
    3.5284    2.0510    8.3981 H   0  0  0  0  0  0  0  0  0  0  0  0
    2.4584    3.1532   10.2008 H   0  0  0  0  0  0  0  0  0  0  0  0
   -0.9648   -2.4225    8.4460 H   0  0  0  0  0  0  0  0  0  0  0  0
   -0.8334   -4.7156    8.9961 H   0  0  0  0  0  0  0  0  0  0  0  0
    0.7803   -5.4626    6.0509 H   0  0  0  0  0  0  0  0  0  0  0  0
   -1.3989   -4.6134    5.6951 H   0  0  0  0  0  0  0  0  0  0  0  0
   -2.3422    3.0949    5.4285 H   0  0  0  0  0  0  0  0  0  0  0  0
   -2.7238    0.8047    4.9885 H   0  0  0  0  0  0  0  0  0  0  0  0
  1  2  1  0
  1  5  1  0
  2  3  1  0
  2  4  1  0
  2 11  1  0
  5  6  1  0
  5  7  1  0
  5  8  1  0
  8  9  1  0
  8 36  1  0
  8 37  1  0
  9 14  1  0
  9 18  1  0
  9 19  1  0
 10 11  1  0
 10 15  1  0
 10 34  1  0
 10 35  1  0
 11 12  1  0
 11 13  1  0
 14 16  1  0
 14 20  1  0
 14 21  1  0
 15 17  1  0
 15 32  1  0
 15 33  1  0
 16 24  1  0
 16 30  1  0
 16 31  1  0
 17 22  1  0
 17 23  1  0
 17 27  1  0
 24 25  1  0
 24 26  1  0
 24 27  1  0
 27 28  1  0
 27 29  1  0
M  CHG  1   1   1
M  RAD  1   1   2
M  END
$$$$

     RDKit          3D

 37 37  0  0  0  0  0  0  0  0999 V2000
    0.0000    0.0000    2.5754 S   0  0  0  0  0  2  0  0  0  0  0  0
    0.2043   -1.8163    3.6793 Si  0  0  0  0  0  4  0  0  0  0  0  0
   -0.8930   -1.9637    4.6358 H   0  0  0  0  0  0  0  0  0  0  0  0
    0.2828   -2.9464    2.7725 H   0  0  0  0  0  0  0  0  0  0  0  0
   -1.2007    1.4380    3.5883 Si  0  0  0  0  0  4  0  0  0  0  0  0
   -2.1513    2.0363    2.6188 H   0  0  0  0  0  0  0  0  0  0  0  0
   -0.3415    2.5315    4.0986 H   0  0  0  0  0  0  0  0  0  0  0  0
   -2.3946    0.5443    5.2310 Si  0  0  0  0  0  4  0  0  0  0  0  0
   -1.2466    0.6790    7.1421 Si  0  0  0  0  0  4  0  0  0  0  0  0
    2.3721   -3.5171    6.1264 Si  0  0  0  0  0  4  0  0  0  0  0  0
    2.1156   -1.7360    4.8444 Si  0  0  0  0  0  4  0  0  0  0  0  0
    2.0871   -0.5304    5.6554 H   0  0  0  0  0  0  0  0  0  0  0  0
    3.2754   -1.6609    3.9207 H   0  0  0  0  0  0  0  0  0  0  0  0
   -1.0803    2.8493    7.7014 Si  0  0  0  0  0  4  0  0  0  0  0  0
    1.9365   -3.0481    8.2857 Si  0  0  0  0  0  4  0  0  0  0  0  0
    0.6099    3.0657    9.1220 Si  0  0  0  0  0  4  0  0  0  0  0  0
    3.4828   -1.7496    9.1631 Si  0  0  0  0  0  4  0  0  0  0  0  0
   -1.9254   -0.0841    8.2038 H   0  0  0  0  0  0  0  0  0  0  0  0
    0.1077    0.1324    6.9669 H   0  0  0  0  0  0  0  0  0  0  0  0
   -0.8154    3.6043    6.4508 H   0  0  0  0  0  0  0  0  0  0  0  0
   -2.3363    3.3495    8.2707 H   0  0  0  0  0  0  0  0  0  0  0  0
    3.6468   -2.0530   10.5747 H   0  0  0  0  0  0  0  0  0  0  0  0
    4.7714   -2.0344    8.4963 H   0  0  0  0  0  0  0  0  0  0  0  0
    1.2373    1.0688    9.9517 Si  0  0  0  0  0  4  0  0  0  0  0  0
    0.1138    0.1618    9.8310 H   0  0  0  0  0  0  0  0  0  0  0  0
    1.5258    1.2920   11.3930 H   0  0  0  0  0  0  0  0  0  0  0  0
    3.0551    0.4127    8.9009 Si  0  0  0  0  0  4  0  0  0  0  0  0
    2.9468    0.7693    7.4807 H   0  0  0  0  0  0  0  0  0  0  0  0
    4.2118    1.1641    9.4357 H   0  0  0  0  0  0  0  0  0  0  0  0
    1.7475    3.6882    8.3981 H   0  0  0  0  0  0  0  0  0  0  0  0
    0.2415    3.9910   10.2008 H   0  0  0  0  0  0  0  0  0  0  0  0
    0.5761   -2.5431    8.4460 H   0  0  0  0  0  0  0  0  0  0  0  0
    1.9826   -4.3590    8.9961 H   0  0  0  0  0  0  0  0  0  0  0  0
    3.7357   -4.0613    6.0509 H   0  0  0  0  0  0  0  0  0  0  0  0
    1.4585   -4.5949    5.6951 H   0  0  0  0  0  0  0  0  0  0  0  0
   -3.6828    1.2253    5.4285 H   0  0  0  0  0  0  0  0  0  0  0  0
   -2.7009   -0.8786    4.9885 H   0  0  0  0  0  0  0  0  0  0  0  0
  1  2  1  0
  1  5  1  0
  2  3  1  0
  2  4  1  0
  2 11  1  0
  5  6  1  0
  5  7  1  0
  5  8  1  0
  8  9  1  0
  8 36  1  0
  8 37  1  0
  9 14  1  0
  9 18  1  0
  9 19  1  0
 10 11  1  0
 10 15  1  0
 10 34  1  0
 10 35  1  0
 11 12  1  0
 11 13  1  0
 14 16  1  0
 14 20  1  0
 14 21  1  0
 15 17  1  0
 15 32  1  0
 15 33  1  0
 16 24  1  0
 16 30  1  0
 16 31  1  0
 17 22  1  0
 17 23  1  0
 17 27  1  0
 24 25  1  0
 24 26  1  0
 24 27  1  0
 27 28  1  0
 27 29  1  0
M  CHG  1   1   1
M  RAD  1   1   2
M  END
$$$$
