
     RDKit          3D

 37 37  0  0  0  0  0  0  0  0999 V2000
   -1.8616   -0.2274   -3.2626 S   0  0  0  0  0  2  0  0  0  0  0  0
   -1.7759    1.4967   -4.5336 Si  0  0  0  0  0  4  0  0  0  0  0  0
   -1.4069    2.6853   -3.7222 H   0  0  0  0  0  0  0  0  0  0  0  0
   -3.0481    1.7837   -5.1763 H   0  0  0  0  0  0  0  0  0  0  0  0
   -3.6563   -1.3528   -3.5757 Si  0  0  0  0  0  4  0  0  0  0  0  0
   -4.6618   -0.5569   -4.2480 H   0  0  0  0  0  0  0  0  0  0  0  0
   -4.1973   -1.7057   -2.2353 H   0  0  0  0  0  0  0  0  0  0  0  0
   -3.1686   -3.2436   -4.6278 Si  0  0  0  0  0  4  0  0  0  0  0  0
   -4.9691   -4.3436   -5.2900 Si  0  0  0  0  0  4  0  0  0  0  0  0
   -0.8951   -0.0305   -7.7110 Si  0  0  0  0  0  4  0  0  0  0  0  0
   -0.1370    1.2467   -6.0508 Si  0  0  0  0  0  4  0  0  0  0  0  0
    0.9770    0.5368   -5.4139 H   0  0  0  0  0  0  0  0  0  0  0  0
    0.3463    2.5488   -6.5291 H   0  0  0  0  0  0  0  0  0  0  0  0
   -5.8947   -3.4908   -7.1001 Si  0  0  0  0  0  4  0  0  0  0  0  0
   -2.5631    1.0160   -8.8019 Si  0  0  0  0  0  4  0  0  0  0  0  0
   -5.3988   -1.3094   -7.3253 Si  0  0  0  0  0  4  0  0  0  0  0  0
   -2.9216   -0.0054  -10.7259 Si  0  0  0  0  0  4  0  0  0  0  0  0
   -4.5533   -5.7407   -5.6025 H   0  0  0  0  0  0  0  0  0  0  0  0
   -5.9095   -4.4546   -4.1586 H   0  0  0  0  0  0  0  0  0  0  0  0
   -5.5599   -4.2346   -8.3037 H   0  0  0  0  0  0  0  0  0  0  0  0
   -7.3741   -3.5572   -6.9361 H   0  0  0  0  0  0  0  0  0  0  0  0
   -2.6081    0.9600  -11.8188 H   0  0  0  0  0  0  0  0  0  0  0  0
   -1.9488   -1.1199  -10.9149 H   0  0  0  0  0  0  0  0  0  0  0  0
   -6.2460   -0.4963   -9.1872 Si  0  0  0  0  0  4  0  0  0  0  0  0
   -7.5301   -1.1833   -9.4541 H   0  0  0  0  0  0  0  0  0  0  0  0
   -6.5742    0.9401   -9.0598 H   0  0  0  0  0  0  0  0  0  0  0  0
   -4.9484   -0.8028  -10.9541 Si  0  0  0  0  0  4  0  0  0  0  0  0
   -4.9373   -2.2611  -11.2568 H   0  0  0  0  0  0  0  0  0  0  0  0
   -5.6084   -0.1612  -12.1058 H   0  0  0  0  0  0  0  0  0  0  0  0
   -6.0740   -0.6212   -6.1875 H   0  0  0  0  0  0  0  0  0  0  0  0
   -3.9541   -1.1723   -7.2329 H   0  0  0  0  0  0  0  0  0  0  0  0
   -3.7651    1.1065   -7.9617 H   0  0  0  0  0  0  0  0  0  0  0  0
   -2.0977    2.4187   -8.9988 H   0  0  0  0  0  0  0  0  0  0  0  0
    0.1445   -0.3433   -8.6749 H   0  0  0  0  0  0  0  0  0  0  0  0
   -1.4510   -1.2442   -7.1357 H   0  0  0  0  0  0  0  0  0  0  0  0
   -2.2431   -3.0397   -5.7534 H   0  0  0  0  0  0  0  0  0  0  0  0
   -2.4410   -4.1133   -3.6590 H   0  0  0  0  0  0  0  0  0  0  0  0
  1  2  1  0
  1  5  1  0
  2  3  1  0
  2  4  1  0
  2 11  1  0
  5  6  1  0
  5  7  1  0
  5  8  1  0
  8  9  1  0
  8 36  1  0
  8 37  1  0
  9 14  1  0
  9 18  1  0
  9 19  1  0
 10 11  1  0
 10 15  1  0
 10 34  1  0
 10 35  1  0
 11 12  1  0
 11 13  1  0
 14 16  1  0
 14 20  1  0
 14 21  1  0
 15 17  1  0
 15 32  1  0
 15 33  1  0
 16 24  1  0
 16 30  1  0
 16 31  1  0
 17 22  1  0
 17 23  1  0
 17 27  1  0
 24 25  1  0
 24 26  1  0
 24 27  1  0
 27 28  1  0
 27 29  1  0
M  CHG  1   1   1
M  RAD  1   1   2
M  END
$$$$

     RDKit          3D

 37 37  0  0  0  0  0  0  0  0999 V2000
   -1.8616   -0.2274   -3.2626 S   0  0  0  0  0  2  0  0  0  0  0  0
   -0.8251    0.0521   -5.1086 Si  0  0  0  0  0  4  0  0  0  0  0  0
    0.6243    0.1218   -4.7896 H   0  0  0  0  0  0  0  0  0  0  0  0
   -1.0076   -1.0380   -6.0430 H   0  0  0  0  0  0  0  0  0  0  0  0
   -3.9300   -0.6209   -3.5331 Si  0  0  0  0  0  4  0  0  0  0  0  0
   -4.1712   -1.6036   -4.6186 H   0  0  0  0  0  0  0  0  0  0  0  0
   -4.4128   -1.2918   -2.2900 H   0  0  0  0  0  0  0  0  0  0  0  0
   -5.1230    1.2245   -3.7924 Si  0  0  0  0  0  4  0  0  0  0  0  0
   -6.2492    1.2718   -5.6896 Si  0  0  0  0  0  4  0  0  0  0  0  0
   -0.9318    2.1006   -8.1745 Si  0  0  0  0  0  4  0  0  0  0  0  0
   -1.3652    2.0374   -6.0045 Si  0  0  0  0  0  4  0  0  0  0  0  0
   -2.7922    2.2614   -5.7035 H   0  0  0  0  0  0  0  0  0  0  0  0
   -0.6252    3.1061   -5.2833 H   0  0  0  0  0  0  0  0  0  0  0  0
   -6.9546   -0.7235   -6.3335 Si  0  0  0  0  0  4  0  0  0  0  0  0
   -0.1811    0.1200   -8.9248 Si  0  0  0  0  0  4  0  0  0  0  0  0
   -7.2763   -0.7871   -8.5643 Si  0  0  0  0  0  4  0  0  0  0  0  0
   -1.9181   -1.2963   -9.0345 Si  0  0  0  0  0  4  0  0  0  0  0  0
   -5.4759    1.9325   -6.7780 H   0  0  0  0  0  0  0  0  0  0  0  0
   -7.4518    2.1328   -5.4979 H   0  0  0  0  0  0  0  0  0  0  0  0
   -8.2334   -1.0936   -5.7172 H   0  0  0  0  0  0  0  0  0  0  0  0
   -5.9410   -1.7416   -6.0188 H   0  0  0  0  0  0  0  0  0  0  0  0
   -2.1412   -1.7542  -10.4202 H   0  0  0  0  0  0  0  0  0  0  0  0
   -1.5200   -2.5116   -8.2711 H   0  0  0  0  0  0  0  0  0  0  0  0
   -5.3798   -0.1545   -9.5998 Si  0  0  0  0  0  4  0  0  0  0  0  0
   -5.1607   -0.9051  -10.8216 H   0  0  0  0  0  0  0  0  0  0  0  0
   -5.5813    1.2726   -9.9745 H   0  0  0  0  0  0  0  0  0  0  0  0
   -3.7171   -0.3734   -8.1431 Si  0  0  0  0  0  4  0  0  0  0  0  0
   -3.3750    0.9829   -7.6530 H   0  0  0  0  0  0  0  0  0  0  0  0
   -4.1291   -1.1501   -6.9749 H   0  0  0  0  0  0  0  0  0  0  0  0
   -7.4810   -2.2120   -8.9210 H   0  0  0  0  0  0  0  0  0  0  0  0
   -8.4048    0.0329   -8.9635 H   0  0  0  0  0  0  0  0  0  0  0  0
    0.3111    0.3229  -10.2874 H   0  0  0  0  0  0  0  0  0  0  0  0
    0.8692   -0.3704   -8.0514 H   0  0  0  0  0  0  0  0  0  0  0  0
    0.0270    3.1743   -8.4684 H   0  0  0  0  0  0  0  0  0  0  0  0
   -2.2013    2.4011   -8.8935 H   0  0  0  0  0  0  0  0  0  0  0  0
   -4.2113    2.3968   -3.7670 H   0  0  0  0  0  0  0  0  0  0  0  0
   -6.0777    1.4356   -2.6747 H   0  0  0  0  0  0  0  0  0  0  0  0
  1  2  1  0
  1  5  1  0
  2  3  1  0
  2  4  1  0
  2 11  1  0
  5  6  1  0
  5  7  1  0
  5  8  1  0
  8  9  1  0
  8 36  1  0
  8 37  1  0
  9 14  1  0
  9 18  1  0
  9 19  1  0
 10 11  1  0
 10 15  1  0
 10 34  1  0
 10 35  1  0
 11 12  1  0
 11 13  1  0
 14 16  1  0
 14 20  1  0
 14 21  1  0
 15 17  1  0
 15 32  1  0
 15 33  1  0
 16 24  1  0
 16 30  1  0
 16 31  1  0
 17 22  1  0
 17 23  1  0
 17 27  1  0
 24 25  1  0
 24 26  1  0
 24 27  1  0
 27 28  1  0
 27 29  1  0
M  CHG  1   1   1
M  RAD  1   1   2
M  END
$$$$

     RDKit          3D

 37 37  0  0  0  0  0  0  0  0999 V2000
   -1.8616   -0.2274   -3.2626 S   0  0  0  0  0  2  0  0  0  0  0  0
   -3.6653   -1.4301   -3.2843 Si  0  0  0  0  0  4  0  0  0  0  0  0
   -3.5866   -2.3335   -2.1409 H   0  0  0  0  0  0  0  0  0  0  0  0
   -4.8308   -0.5371   -3.1509 H   0  0  0  0  0  0  0  0  0  0  0  0
   -2.2204    1.4024   -4.6493 Si  0  0  0  0  0  4  0  0  0  0  0  0
   -1.1792    2.4119   -4.5611 H   0  0  0  0  0  0  0  0  0  0  0  0
   -2.1880    0.8009   -5.9875 H   0  0  0  0  0  0  0  0  0  0  0  0
   -4.2432    2.2220   -4.1574 Si  0  0  0  0  0  4  0  0  0  0  0  0
   -4.5167    4.2752   -4.9306 Si  0  0  0  0  0  4  0  0  0  0  0  0
   -5.5109   -1.8705   -6.4472 Si  0  0  0  0  0  4  0  0  0  0  0  0
   -3.8119   -2.5914   -5.1847 Si  0  0  0  0  0  4  0  0  0  0  0  0
   -2.5743   -2.5258   -5.9514 H   0  0  0  0  0  0  0  0  0  0  0  0
   -4.1060   -4.0052   -4.8432 H   0  0  0  0  0  0  0  0  0  0  0  0
   -6.2078    4.4035   -6.3813 Si  0  0  0  0  0  4  0  0  0  0  0  0
   -4.8757   -1.5483   -8.5593 Si  0  0  0  0  0  4  0  0  0  0  0  0
   -7.6242    2.7184   -6.1422 Si  0  0  0  0  0  4  0  0  0  0  0  0
   -4.3669    0.5671   -8.9489 Si  0  0  0  0  0  4  0  0  0  0  0  0
   -4.7984    5.1684   -3.7945 H   0  0  0  0  0  0  0  0  0  0  0  0
   -3.2864    4.7013   -5.6029 H   0  0  0  0  0  0  0  0  0  0  0  0
   -6.8765    5.7218   -6.2547 H   0  0  0  0  0  0  0  0  0  0  0  0
   -5.6724    4.3545   -7.7598 H   0  0  0  0  0  0  0  0  0  0  0  0
   -3.6537    1.1951   -7.8466 H   0  0  0  0  0  0  0  0  0  0  0  0
   -3.4670    0.6341  -10.1331 H   0  0  0  0  0  0  0  0  0  0  0  0
   -7.8037    1.4807   -7.9680 Si  0  0  0  0  0  4  0  0  0  0  0  0
   -9.0829    1.8534   -8.6374 H   0  0  0  0  0  0  0  0  0  0  0  0
   -7.9243    0.0479   -7.6495 H   0  0  0  0  0  0  0  0  0  0  0  0
   -6.1652    1.8029   -9.4043 Si  0  0  0  0  0  4  0  0  0  0  0  0
   -6.6299    1.4184  -10.7543 H   0  0  0  0  0  0  0  0  0  0  0  0
   -5.7508    3.2073   -9.4575 H   0  0  0  0  0  0  0  0  0  0  0  0
   -7.2097    1.9078   -4.9713 H   0  0  0  0  0  0  0  0  0  0  0  0
   -8.9462    3.2970   -5.7668 H   0  0  0  0  0  0  0  0  0  0  0  0
   -5.9430   -1.9613   -9.4981 H   0  0  0  0  0  0  0  0  0  0  0  0
   -3.7114   -2.3997   -8.8508 H   0  0  0  0  0  0  0  0  0  0  0  0
   -6.6286   -2.8246   -6.4513 H   0  0  0  0  0  0  0  0  0  0  0  0
   -6.0000   -0.5989   -5.9229 H   0  0  0  0  0  0  0  0  0  0  0  0
   -5.2632    1.3493   -4.7241 H   0  0  0  0  0  0  0  0  0  0  0  0
   -4.3839    2.1509   -2.6839 H   0  0  0  0  0  0  0  0  0  0  0  0
  1  2  1  0
  1  5  1  0
  2  3  1  0
  2  4  1  0
  2 11  1  0
  5  6  1  0
  5  7  1  0
  5  8  1  0
  8  9  1  0
  8 36  1  0
  8 37  1  0
  9 14  1  0
  9 18  1  0
  9 19  1  0
 10 11  1  0
 10 15  1  0
 10 34  1  0
 10 35  1  0
 11 12  1  0
 11 13  1  0
 14 16  1  0
 14 20  1  0
 14 21  1  0
 15 17  1  0
 15 32  1  0
 15 33  1  0
 16 24  1  0
 16 30  1  0
 16 31  1  0
 17 22  1  0
 17 23  1  0
 17 27  1  0
 24 25  1  0
 24 26  1  0
 24 27  1  0
 27 28  1  0
 27 29  1  0
M  CHG  1   1   1
M  RAD  1   1   2
M  END
$$$$

     RDKit          3D

 37 37  0  0  0  0  0  0  0  0999 V2000
   -1.8616   -0.2274   -3.2626 S   0  0  0  0  0  2  0  0  0  0  0  0
   -0.0780   -1.0510   -4.1829 Si  0  0  0  0  0  4  0  0  0  0  0  0
   -0.2466   -2.5167   -4.3778 H   0  0  0  0  0  0  0  0  0  0  0  0
    1.0416   -0.8076   -3.2880 H   0  0  0  0  0  0  0  0  0  0  0  0
   -3.3595   -0.2356   -4.7729 Si  0  0  0  0  0  4  0  0  0  0  0  0
   -2.7244    0.2280   -6.0355 H   0  0  0  0  0  0  0  0  0  0  0  0
   -3.7487   -1.6441   -5.0219 H   0  0  0  0  0  0  0  0  0  0  0  0
   -5.0794    1.0558   -4.3490 Si  0  0  0  0  0  4  0  0  0  0  0  0
   -6.7254    0.4833   -5.7249 Si  0  0  0  0  0  4  0  0  0  0  0  0
    0.3735   -1.7312   -7.7801 Si  0  0  0  0  0  4  0  0  0  0  0  0
    0.2230   -0.1476   -6.1927 Si  0  0  0  0  0  4  0  0  0  0  0  0
    1.5190    0.5640   -6.1691 H   0  0  0  0  0  0  0  0  0  0  0  0
   -0.8049    0.8322   -6.5312 H   0  0  0  0  0  0  0  0  0  0  0  0
   -6.4776    1.2820   -7.7569 Si  0  0  0  0  0  4  0  0  0  0  0  0
    0.8204   -0.8057   -9.7228 Si  0  0  0  0  0  4  0  0  0  0  0  0
   -4.4332    1.0452   -8.5730 Si  0  0  0  0  0  4  0  0  0  0  0  0
   -0.9249   -0.0302  -10.8086 Si  0  0  0  0  0  4  0  0  0  0  0  0
   -7.9839    0.9760   -5.1615 H   0  0  0  0  0  0  0  0  0  0  0  0
   -6.8453   -0.9945   -5.8026 H   0  0  0  0  0  0  0  0  0  0  0  0
   -7.4231    0.6217   -8.6534 H   0  0  0  0  0  0  0  0  0  0  0  0
   -6.8026    2.7169   -7.7519 H   0  0  0  0  0  0  0  0  0  0  0  0
   -0.5421    0.2123  -12.2104 H   0  0  0  0  0  0  0  0  0  0  0  0
   -1.3071    1.2844  -10.2431 H   0  0  0  0  0  0  0  0  0  0  0  0
   -3.8491   -1.0630   -8.8605 Si  0  0  0  0  0  4  0  0  0  0  0  0
   -2.8602   -1.4148   -7.8155 H   0  0  0  0  0  0  0  0  0  0  0  0
   -4.9634   -1.9901   -8.7908 H   0  0  0  0  0  0  0  0  0  0  0  0
   -2.6892   -1.3439  -10.7771 Si  0  0  0  0  0  4  0  0  0  0  0  0
   -2.3766   -2.7652  -10.8770 H   0  0  0  0  0  0  0  0  0  0  0  0
   -3.5920   -0.9627  -11.8735 H   0  0  0  0  0  0  0  0  0  0  0  0
   -3.4800    1.7830   -7.7002 H   0  0  0  0  0  0  0  0  0  0  0  0
   -4.3888    1.7209   -9.8793 H   0  0  0  0  0  0  0  0  0  0  0  0
    1.5069   -1.8111  -10.5762 H   0  0  0  0  0  0  0  0  0  0  0  0
    1.7835    0.2898   -9.5251 H   0  0  0  0  0  0  0  0  0  0  0  0
    1.5476   -2.5676   -7.3943 H   0  0  0  0  0  0  0  0  0  0  0  0
   -0.7786   -2.6103   -7.7792 H   0  0  0  0  0  0  0  0  0  0  0  0
   -5.5383    0.8078   -2.9654 H   0  0  0  0  0  0  0  0  0  0  0  0
   -4.7348    2.4590   -4.5583 H   0  0  0  0  0  0  0  0  0  0  0  0
  1  2  1  0
  1  5  1  0
  2  3  1  0
  2  4  1  0
  2 11  1  0
  5  6  1  0
  5  7  1  0
  5  8  1  0
  8  9  1  0
  8 36  1  0
  8 37  1  0
  9 14  1  0
  9 18  1  0
  9 19  1  0
 10 11  1  0
 10 15  1  0
 10 34  1  0
 10 35  1  0
 11 12  1  0
 11 13  1  0
 14 16  1  0
 14 20  1  0
 14 21  1  0
 15 17  1  0
 15 32  1  0
 15 33  1  0
 16 24  1  0
 16 30  1  0
 16 31  1  0
 17 22  1  0
 17 23  1  0
 17 27  1  0
 24 25  1  0
 24 26  1  0
 24 27  1  0
 27 28  1  0
 27 29  1  0
M  CHG  1   1   1
M  RAD  1   1   2
M  END
$$$$

     RDKit          3D

 37 37  0  0  0  0  0  0  0  0999 V2000
   -1.8616   -0.2274   -3.2626 S   0  0  0  0  0  2  0  0  0  0  0  0
   -0.9349    0.7225   -4.9769 Si  0  0  0  0  0  4  0  0  0  0  0  0
   -0.0328    1.7459   -4.4587 H   0  0  0  0  0  0  0  0  0  0  0  0
   -0.1766   -0.2943   -5.7285 H   0  0  0  0  0  0  0  0  0  0  0  0
   -2.8027   -2.0293   -4.0214 Si  0  0  0  0  0  4  0  0  0  0  0  0
   -3.2672   -2.8803   -2.9393 H   0  0  0  0  0  0  0  0  0  0  0  0
   -3.9605   -1.5758   -4.8007 H   0  0  0  0  0  0  0  0  0  0  0  0
   -1.2826   -3.0461   -5.3101 Si  0  0  0  0  0  4  0  0  0  0  0  0
   -1.7436   -5.1885   -5.6036 Si  0  0  0  0  0  4  0  0  0  0  0  0
   -2.6166    0.5786   -8.2565 Si  0  0  0  0  0  4  0  0  0  0  0  0
   -2.4820    1.6444   -6.2953 Si  0  0  0  0  0  4  0  0  0  0  0  0
   -3.7926    1.6576   -5.6581 H   0  0  0  0  0  0  0  0  0  0  0  0
   -2.0659    3.0367   -6.5959 H   0  0  0  0  0  0  0  0  0  0  0  0
   -2.0536   -5.6893   -7.7562 Si  0  0  0  0  0  4  0  0  0  0  0  0
   -4.7313    0.1165   -8.7881 Si  0  0  0  0  0  4  0  0  0  0  0  0
   -1.1256   -4.1857   -9.0908 Si  0  0  0  0  0  4  0  0  0  0  0  0
   -5.2887   -1.9448   -8.2172 Si  0  0  0  0  0  4  0  0  0  0  0  0
   -0.6159   -5.9834   -5.0898 H   0  0  0  0  0  0  0  0  0  0  0  0
   -2.9630   -5.5215   -4.8624 H   0  0  0  0  0  0  0  0  0  0  0  0
   -1.5592   -7.0618   -8.0266 H   0  0  0  0  0  0  0  0  0  0  0  0
   -3.5043   -5.7197   -8.0458 H   0  0  0  0  0  0  0  0  0  0  0  0
   -4.7302   -2.3534   -6.9368 H   0  0  0  0  0  0  0  0  0  0  0  0
   -6.7693   -2.0215   -8.0812 H   0  0  0  0  0  0  0  0  0  0  0  0
   -2.5938   -3.1847  -10.4100 Si  0  0  0  0  0  4  0  0  0  0  0  0
   -2.4618   -3.7894  -11.7666 H   0  0  0  0  0  0  0  0  0  0  0  0
   -2.2908   -1.7537  -10.5813 H   0  0  0  0  0  0  0  0  0  0  0  0
   -4.6788   -3.4445   -9.7493 Si  0  0  0  0  0  4  0  0  0  0  0  0
   -5.5746   -3.2705  -10.9128 H   0  0  0  0  0  0  0  0  0  0  0  0
   -4.9169   -4.7810   -9.1981 H   0  0  0  0  0  0  0  0  0  0  0  0
   -0.3790   -3.2074   -8.2629 H   0  0  0  0  0  0  0  0  0  0  0  0
   -0.0858   -4.8868   -9.8975 H   0  0  0  0  0  0  0  0  0  0  0  0
   -4.9570    0.2848  -10.2413 H   0  0  0  0  0  0  0  0  0  0  0  0
   -5.6214    1.0751   -8.1140 H   0  0  0  0  0  0  0  0  0  0  0  0
   -2.0389    1.3741   -9.3487 H   0  0  0  0  0  0  0  0  0  0  0  0
   -1.8848   -0.6820   -8.1752 H   0  0  0  0  0  0  0  0  0  0  0  0
   -1.2297   -2.3786   -6.6042 H   0  0  0  0  0  0  0  0  0  0  0  0
    0.0333   -2.8361   -4.6617 H   0  0  0  0  0  0  0  0  0  0  0  0
  1  2  1  0
  1  5  1  0
  2  3  1  0
  2  4  1  0
  2 11  1  0
  5  6  1  0
  5  7  1  0
  5  8  1  0
  8  9  1  0
  8 36  1  0
  8 37  1  0
  9 14  1  0
  9 18  1  0
  9 19  1  0
 10 11  1  0
 10 15  1  0
 10 34  1  0
 10 35  1  0
 11 12  1  0
 11 13  1  0
 14 16  1  0
 14 20  1  0
 14 21  1  0
 15 17  1  0
 15 32  1  0
 15 33  1  0
 16 24  1  0
 16 30  1  0
 16 31  1  0
 17 22  1  0
 17 23  1  0
 17 27  1  0
 24 25  1  0
 24 26  1  0
 24 27  1  0
 27 28  1  0
 27 29  1  0
M  CHG  1   1   1
M  RAD  1   1   2
M  END
$$$$

     RDKit          3D

 37 37  0  0  0  0  0  0  0  0999 V2000
   -1.8616   -0.2274   -3.2626 S   0  0  0  0  0  2  0  0  0  0  0  0
   -1.2368    1.1147   -4.8463 Si  0  0  0  0  0  4  0  0  0  0  0  0
   -0.5740    2.2465   -4.2065 H   0  0  0  0  0  0  0  0  0  0  0  0
   -0.2938    0.4010   -5.7266 H   0  0  0  0  0  0  0  0  0  0  0  0
   -2.3935   -2.0899   -4.2407 Si  0  0  0  0  0  4  0  0  0  0  0  0
   -2.6133   -3.1519   -3.2739 H   0  0  0  0  0  0  0  0  0  0  0  0
   -3.6509   -1.8228   -4.9486 H   0  0  0  0  0  0  0  0  0  0  0  0
   -0.7280   -2.5617   -5.6581 Si  0  0  0  0  0  4  0  0  0  0  0  0
   -0.6987   -4.6996   -6.2213 Si  0  0  0  0  0  4  0  0  0  0  0  0
   -2.9560    0.9931   -8.1073 Si  0  0  0  0  0  4  0  0  0  0  0  0
   -2.9988    1.8107   -6.0265 Si  0  0  0  0  0  4  0  0  0  0  0  0
   -4.2546    1.4426   -5.3851 H   0  0  0  0  0  0  0  0  0  0  0  0
   -2.9218    3.2876   -6.1483 H   0  0  0  0  0  0  0  0  0  0  0  0
   -0.9621   -4.9886   -8.4185 Si  0  0  0  0  0  4  0  0  0  0  0  0
   -4.9272    0.1252   -8.6813 Si  0  0  0  0  0  4  0  0  0  0  0  0
   -0.4489   -3.1587   -9.5547 Si  0  0  0  0  0  4  0  0  0  0  0  0
   -4.9797   -2.0634   -8.3762 Si  0  0  0  0  0  4  0  0  0  0  0  0
    0.5979   -5.2703   -5.8204 H   0  0  0  0  0  0  0  0  0  0  0  0
   -1.7833   -5.3936   -5.5218 H   0  0  0  0  0  0  0  0  0  0  0  0
   -0.1779   -6.1660   -8.8656 H   0  0  0  0  0  0  0  0  0  0  0  0
   -2.3770   -5.3166   -8.7010 H   0  0  0  0  0  0  0  0  0  0  0  0
   -4.2980   -2.4871   -7.1621 H   0  0  0  0  0  0  0  0  0  0  0  0
   -6.3981   -2.4956   -8.2425 H   0  0  0  0  0  0  0  0  0  0  0  0
   -2.1521   -2.3681  -10.7258 Si  0  0  0  0  0  4  0  0  0  0  0  0
   -1.9338   -2.7538  -12.1496 H   0  0  0  0  0  0  0  0  0  0  0  0
   -2.1895   -0.8959  -10.7140 H   0  0  0  0  0  0  0  0  0  0  0  0
   -4.0985   -3.1811  -10.0916 Si  0  0  0  0  0  4  0  0  0  0  0  0
   -5.0508   -3.0760  -11.2179 H   0  0  0  0  0  0  0  0  0  0  0  0
   -4.0061   -4.5941   -9.7150 H   0  0  0  0  0  0  0  0  0  0  0  0
    0.0838   -2.1445   -8.6125 H   0  0  0  0  0  0  0  0  0  0  0  0
    0.6942   -3.4960  -10.4507 H   0  0  0  0  0  0  0  0  0  0  0  0
   -5.2364    0.4151  -10.0995 H   0  0  0  0  0  0  0  0  0  0  0  0
   -5.9880    0.7620   -7.8846 H   0  0  0  0  0  0  0  0  0  0  0  0
   -2.6137    2.0289   -9.0919 H   0  0  0  0  0  0  0  0  0  0  0  0
   -1.9538   -0.0649   -8.1927 H   0  0  0  0  0  0  0  0  0  0  0  0
   -0.8744   -1.7455   -6.8562 H   0  0  0  0  0  0  0  0  0  0  0  0
    0.5274   -2.1358   -4.9959 H   0  0  0  0  0  0  0  0  0  0  0  0
  1  2  1  0
  1  5  1  0
  2  3  1  0
  2  4  1  0
  2 11  1  0
  5  6  1  0
  5  7  1  0
  5  8  1  0
  8  9  1  0
  8 36  1  0
  8 37  1  0
  9 14  1  0
  9 18  1  0
  9 19  1  0
 10 11  1  0
 10 15  1  0
 10 34  1  0
 10 35  1  0
 11 12  1  0
 11 13  1  0
 14 16  1  0
 14 20  1  0
 14 21  1  0
 15 17  1  0
 15 32  1  0
 15 33  1  0
 16 24  1  0
 16 30  1  0
 16 31  1  0
 17 22  1  0
 17 23  1  0
 17 27  1  0
 24 25  1  0
 24 26  1  0
 24 27  1  0
 27 28  1  0
 27 29  1  0
M  CHG  1   1   1
M  RAD  1   1   2
M  END
$$$$
