
     RDKit          3D

 37 37  0  0  0  0  0  0  0  0999 V2000
   -0.1155    0.2308    1.5243 S   0  0  0  0  0  2  0  0  0  0  0  0
   -1.7146    0.1805    2.9246 Si  0  0  0  0  0  4  0  0  0  0  0  0
   -2.9481   -0.1807    2.1931 H   0  0  0  0  0  0  0  0  0  0  0  0
   -1.9000    1.5153    3.4779 H   0  0  0  0  0  0  0  0  0  0  0  0
    1.7779    0.5075    2.4521 Si  0  0  0  0  0  4  0  0  0  0  0  0
    1.8934   -0.4261    3.5679 H   0  0  0  0  0  0  0  0  0  0  0  0
    2.8263    0.2762    1.4397 H   0  0  0  0  0  0  0  0  0  0  0  0
    1.9070    2.6244    3.2232 Si  0  0  0  0  0  4  0  0  0  0  0  0
    3.7470    2.9231    4.3789 Si  0  0  0  0  0  4  0  0  0  0  0  0
   -0.4405   -0.0667    6.3164 Si  0  0  0  0  0  4  0  0  0  0  0  0
   -1.3213   -1.2379    4.6026 Si  0  0  0  0  0  4  0  0  0  0  0  0
   -2.5634   -1.8678    5.0813 H   0  0  0  0  0  0  0  0  0  0  0  0
   -0.4024   -2.2992    4.1756 H   0  0  0  0  0  0  0  0  0  0  0  0
    3.4394    3.7762    6.3880 Si  0  0  0  0  0  4  0  0  0  0  0  0
    1.2004   -1.2356    7.2745 Si  0  0  0  0  0  4  0  0  0  0  0  0
    1.3161    4.0832    6.9033 Si  0  0  0  0  0  4  0  0  0  0  0  0
    2.8481    0.0886    7.9683 Si  0  0  0  0  0  4  0  0  0  0  0  0
    4.4240    1.6039    4.5405 H   0  0  0  0  0  0  0  0  0  0  0  0
    4.6969    3.7389    3.5687 H   0  0  0  0  0  0  0  0  0  0  0  0
    4.1996    5.0592    6.4583 H   0  0  0  0  0  0  0  0  0  0  0  0
    4.0468    2.9270    7.4536 H   0  0  0  0  0  0  0  0  0  0  0  0
    3.8664   -0.7637    8.6025 H   0  0  0  0  0  0  0  0  0  0  0  0
    3.4588    0.6947    6.7954 H   0  0  0  0  0  0  0  0  0  0  0  0
    0.6692    2.9823    8.6972 Si  0  0  0  0  0  4  0  0  0  0  0  0
    0.3580    3.9352    9.7752 H   0  0  0  0  0  0  0  0  0  0  0  0
   -0.5886    2.2181    8.4592 H   0  0  0  0  0  0  0  0  0  0  0  0
    2.1791    1.5663    9.4673 Si  0  0  0  0  0  4  0  0  0  0  0  0
    3.3461    2.2850    9.9718 H   0  0  0  0  0  0  0  0  0  0  0  0
    1.5892    0.8390   10.6020 H   0  0  0  0  0  0  0  0  0  0  0  0
    1.0851    5.5458    7.0894 H   0  0  0  0  0  0  0  0  0  0  0  0
    0.4050    3.7036    5.7861 H   0  0  0  0  0  0  0  0  0  0  0  0
    1.7676   -2.1066    6.2143 H   0  0  0  0  0  0  0  0  0  0  0  0
    0.7034   -2.1170    8.3228 H   0  0  0  0  0  0  0  0  0  0  0  0
   -1.4755    0.1683    7.3262 H   0  0  0  0  0  0  0  0  0  0  0  0
    0.0668    1.2120    5.8553 H   0  0  0  0  0  0  0  0  0  0  0  0
    0.6804    2.8858    3.9395 H   0  0  0  0  0  0  0  0  0  0  0  0
    1.8970    3.4889    2.0081 H   0  0  0  0  0  0  0  0  0  0  0  0
  1  2  1  0
  1  5  1  0
  2  3  1  0
  2  4  1  0
  2 11  1  0
  5  6  1  0
  5  7  1  0
  5  8  1  0
  8  9  1  0
  8 36  1  0
  8 37  1  0
  9 14  1  0
  9 18  1  0
  9 19  1  0
 10 11  1  0
 10 15  1  0
 10 34  1  0
 10 35  1  0
 11 12  1  0
 11 13  1  0
 14 16  1  0
 14 20  1  0
 14 21  1  0
 15 17  1  0
 15 32  1  0
 15 33  1  0
 16 24  1  0
 16 30  1  0
 16 31  1  0
 17 22  1  0
 17 23  1  0
 17 27  1  0
 24 25  1  0
 24 26  1  0
 24 27  1  0
 27 28  1  0
 27 29  1  0
M  CHG  1   1   1
M  RAD  1   1   2
M  END
$$$$

     RDKit          3D

 37 37  0  0  0  0  0  0  0  0999 V2000
   -0.1155    0.2308    1.5243 S   0  0  0  0  0  2  0  0  0  0  0  0
   -1.2296    0.0334    3.3668 Si  0  0  0  0  0  4  0  0  0  0  0  0
   -1.9259    1.2785    3.7020 H   0  0  0  0  0  0  0  0  0  0  0  0
   -2.1722   -1.1026    3.2404 H   0  0  0  0  0  0  0  0  0  0  0  0
    1.7351    1.2134    1.9913 Si  0  0  0  0  0  4  0  0  0  0  0  0
    2.3898    1.5686    0.7283 H   0  0  0  0  0  0  0  0  0  0  0  0
    2.6331    0.3643    2.7647 H   0  0  0  0  0  0  0  0  0  0  0  0
    1.2458    3.1160    3.0573 Si  0  0  0  0  0  4  0  0  0  0  0  0
    3.1122    4.1238    3.7916 Si  0  0  0  0  0  4  0  0  0  0  0  0
   -0.7754   -0.3862    6.9874 Si  0  0  0  0  0  4  0  0  0  0  0  0
    0.2231   -0.4886    4.9692 Si  0  0  0  0  0  4  0  0  0  0  0  0
    1.3890    0.4056    4.9702 H   0  0  0  0  0  0  0  0  0  0  0  0
    0.6760   -1.8746    4.7963 H   0  0  0  0  0  0  0  0  0  0  0  0
    2.8234    5.0705    5.7537 Si  0  0  0  0  0  4  0  0  0  0  0  0
    0.8313   -0.8743    8.4869 Si  0  0  0  0  0  4  0  0  0  0  0  0
    3.9843    4.1515    7.3779 Si  0  0  0  0  0  4  0  0  0  0  0  0
    2.1491    0.9213    8.6618 Si  0  0  0  0  0  4  0  0  0  0  0  0
    4.1833    3.1463    3.7470 H   0  0  0  0  0  0  0  0  0  0  0  0
    3.4400    5.1681    2.7788 H   0  0  0  0  0  0  0  0  0  0  0  0
    3.1633    6.5204    5.6831 H   0  0  0  0  0  0  0  0  0  0  0  0
    1.3729    5.0342    6.0876 H   0  0  0  0  0  0  0  0  0  0  0  0
    1.4958    2.1199    8.1009 H   0  0  0  0  0  0  0  0  0  0  0  0
    2.4129    1.2220   10.0889 H   0  0  0  0  0  0  0  0  0  0  0  0
    5.0165    2.2900    6.7870 Si  0  0  0  0  0  4  0  0  0  0  0  0
    5.0864    2.1902    5.3063 H   0  0  0  0  0  0  0  0  0  0  0  0
    6.4376    2.2988    7.2399 H   0  0  0  0  0  0  0  0  0  0  0  0
    4.0676    0.4734    7.6312 Si  0  0  0  0  0  4  0  0  0  0  0  0
    4.9382   -0.2265    8.5802 H   0  0  0  0  0  0  0  0  0  0  0  0
    3.7646   -0.4739    6.5295 H   0  0  0  0  0  0  0  0  0  0  0  0
    5.0059    5.1006    7.9033 H   0  0  0  0  0  0  0  0  0  0  0  0
    3.1010    3.8364    8.5315 H   0  0  0  0  0  0  0  0  0  0  0  0
    0.2775   -1.2909    9.7562 H   0  0  0  0  0  0  0  0  0  0  0  0
    1.5760   -2.0307    7.9200 H   0  0  0  0  0  0  0  0  0  0  0  0
   -1.7983   -1.4229    7.0828 H   0  0  0  0  0  0  0  0  0  0  0  0
   -1.3539    0.9197    7.2303 H   0  0  0  0  0  0  0  0  0  0  0  0
    0.3991    2.7954    4.2132 H   0  0  0  0  0  0  0  0  0  0  0  0
    0.5251    3.9867    2.1091 H   0  0  0  0  0  0  0  0  0  0  0  0
  1  2  1  0
  1  5  1  0
  2  3  1  0
  2  4  1  0
  2 11  1  0
  5  6  1  0
  5  7  1  0
  5  8  1  0
  8  9  1  0
  8 36  1  0
  8 37  1  0
  9 14  1  0
  9 18  1  0
  9 19  1  0
 10 11  1  0
 10 15  1  0
 10 34  1  0
 10 35  1  0
 11 12  1  0
 11 13  1  0
 14 16  1  0
 14 20  1  0
 14 21  1  0
 15 17  1  0
 15 32  1  0
 15 33  1  0
 16 24  1  0
 16 30  1  0
 16 31  1  0
 17 22  1  0
 17 23  1  0
 17 27  1  0
 24 25  1  0
 24 26  1  0
 24 27  1  0
 27 28  1  0
 27 29  1  0
M  CHG  1   1   1
M  RAD  1   1   2
M  END
$$$$

     RDKit          3D

 37 37  0  0  0  0  0  0  0  0999 V2000
   -0.1155    0.2308    1.5243 S   0  0  0  0  0  2  0  0  0  0  0  0
   -1.6501    0.0428    2.9837 Si  0  0  0  0  0  4  0  0  0  0  0  0
   -2.8869   -0.3787    2.2911 H   0  0  0  0  0  0  0  0  0  0  0  0
   -1.8971    1.3488    3.5802 H   0  0  0  0  0  0  0  0  0  0  0  0
    1.7926    0.6057    2.3850 Si  0  0  0  0  0  4  0  0  0  0  0  0
    2.0122   -0.3460    3.4695 H   0  0  0  0  0  0  0  0  0  0  0  0
    2.8117    0.4676    1.3267 H   0  0  0  0  0  0  0  0  0  0  0  0
    1.8185    2.7067    3.2082 Si  0  0  0  0  0  4  0  0  0  0  0  0
    3.6812    3.0945    4.2994 Si  0  0  0  0  0  4  0  0  0  0  0  0
   -0.2265   -0.2060    6.3154 Si  0  0  0  0  0  4  0  0  0  0  0  0
   -1.1001   -1.3886    4.6057 Si  0  0  0  0  0  4  0  0  0  0  0  0
   -2.2794   -2.1089    5.1148 H   0  0  0  0  0  0  0  0  0  0  0  0
   -0.1338   -2.3775    4.1144 H   0  0  0  0  0  0  0  0  0  0  0  0
    3.4018    3.8758    6.3416 Si  0  0  0  0  0  4  0  0  0  0  0  0
    1.5226   -1.2904    7.1767 Si  0  0  0  0  0  4  0  0  0  0  0  0
    1.2859    4.0325    6.9471 Si  0  0  0  0  0  4  0  0  0  0  0  0
    3.1099    0.1196    7.8420 Si  0  0  0  0  0  4  0  0  0  0  0  0
    4.4464    1.8180    4.3983 H   0  0  0  0  0  0  0  0  0  0  0  0
    4.5439    3.9896    3.4756 H   0  0  0  0  0  0  0  0  0  0  0  0
    4.0814    5.2029    6.4174 H   0  0  0  0  0  0  0  0  0  0  0  0
    4.1045    3.0412    7.3591 H   0  0  0  0  0  0  0  0  0  0  0  0
    4.2050   -0.6809    8.4126 H   0  0  0  0  0  0  0  0  0  0  0  0
    3.6329    0.7927    6.6632 H   0  0  0  0  0  0  0  0  0  0  0  0
    0.7833    2.8479    8.7340 Si  0  0  0  0  0  4  0  0  0  0  0  0
    0.4564    3.7517    9.8490 H   0  0  0  0  0  0  0  0  0  0  0  0
   -0.4321    2.0105    8.5242 H   0  0  0  0  0  0  0  0  0  0  0  0
    2.4098    1.5134    9.4058 Si  0  0  0  0  0  4  0  0  0  0  0  0
    3.5485    2.2929    9.8841 H   0  0  0  0  0  0  0  0  0  0  0  0
    1.9137    0.7216   10.5421 H   0  0  0  0  0  0  0  0  0  0  0  0
    0.9705    5.4721    7.1821 H   0  0  0  0  0  0  0  0  0  0  0  0
    0.3562    3.6229    5.8562 H   0  0  0  0  0  0  0  0  0  0  0  0
    2.1004   -2.0964    6.0718 H   0  0  0  0  0  0  0  0  0  0  0  0
    1.1253   -2.2277    8.2190 H   0  0  0  0  0  0  0  0  0  0  0  0
   -1.2326   -0.0634    7.3708 H   0  0  0  0  0  0  0  0  0  0  0  0
    0.1796    1.1137    5.8702 H   0  0  0  0  0  0  0  0  0  0  0  0
    0.6078    2.8706    3.9785 H   0  0  0  0  0  0  0  0  0  0  0  0
    1.7045    3.5987    2.0186 H   0  0  0  0  0  0  0  0  0  0  0  0
  1  2  1  0
  1  5  1  0
  2  3  1  0
  2  4  1  0
  2 11  1  0
  5  6  1  0
  5  7  1  0
  5  8  1  0
  8  9  1  0
  8 36  1  0
  8 37  1  0
  9 14  1  0
  9 18  1  0
  9 19  1  0
 10 11  1  0
 10 15  1  0
 10 34  1  0
 10 35  1  0
 11 12  1  0
 11 13  1  0
 14 16  1  0
 14 20  1  0
 14 21  1  0
 15 17  1  0
 15 32  1  0
 15 33  1  0
 16 24  1  0
 16 30  1  0
 16 31  1  0
 17 22  1  0
 17 23  1  0
 17 27  1  0
 24 25  1  0
 24 26  1  0
 24 27  1  0
 27 28  1  0
 27 29  1  0
M  CHG  1   1   1
M  RAD  1   1   2
M  END
$$$$

     RDKit          3D

 37 37  0  0  0  0  0  0  0  0999 V2000
   -0.1155    0.2308    1.5243 S   0  0  0  0  0  2  0  0  0  0  0  0
   -0.8324   -0.3900    3.4674 Si  0  0  0  0  0  4  0  0  0  0  0  0
   -1.7388    0.6077    4.0423 H   0  0  0  0  0  0  0  0  0  0  0  0
   -1.4868   -1.7130    3.3393 H   0  0  0  0  0  0  0  0  0  0  0  0
    1.5007    1.6075    1.8424 Si  0  0  0  0  0  4  0  0  0  0  0  0
    1.8357    2.2175    0.5518 H   0  0  0  0  0  0  0  0  0  0  0  0
    2.6888    0.9527    2.3763 H   0  0  0  0  0  0  0  0  0  0  0  0
    0.7570    3.2321    3.1851 Si  0  0  0  0  0  4  0  0  0  0  0  0
    2.4263    4.6154    3.7667 Si  0  0  0  0  0  4  0  0  0  0  0  0
    0.2974   -0.9733    6.9133 Si  0  0  0  0  0  4  0  0  0  0  0  0
    0.9458   -0.6565    4.7779 Si  0  0  0  0  0  4  0  0  0  0  0  0
    1.8506    0.4999    4.7228 H   0  0  0  0  0  0  0  0  0  0  0  0
    1.6792   -1.8646    4.3797 H   0  0  0  0  0  0  0  0  0  0  0  0
    2.2483    5.2964    5.8486 Si  0  0  0  0  0  4  0  0  0  0  0  0
    2.1982   -1.1600    8.1052 Si  0  0  0  0  0  4  0  0  0  0  0  0
    3.8447    4.5717    7.1740 Si  0  0  0  0  0  4  0  0  0  0  0  0
    3.0636    0.8898    8.3073 Si  0  0  0  0  0  4  0  0  0  0  0  0
    3.6760    3.9468    3.4571 H   0  0  0  0  0  0  0  0  0  0  0  0
    2.3262    5.7872    2.8498 H   0  0  0  0  0  0  0  0  0  0  0  0
    2.2188    6.7860    5.9045 H   0  0  0  0  0  0  0  0  0  0  0  0
    0.9229    4.8683    6.3748 H   0  0  0  0  0  0  0  0  0  0  0  0
    2.0619    1.9261    7.9897 H   0  0  0  0  0  0  0  0  0  0  0  0
    3.4797    1.1307    9.7092 H   0  0  0  0  0  0  0  0  0  0  0  0
    5.1767    3.0851    6.2275 Si  0  0  0  0  0  4  0  0  0  0  0  0
    5.0237    3.1265    4.7502 H   0  0  0  0  0  0  0  0  0  0  0  0
    6.6099    3.4156    6.4755 H   0  0  0  0  0  0  0  0  0  0  0  0
    4.8371    1.0256    6.9732 Si  0  0  0  0  0  4  0  0  0  0  0  0
    5.9926    0.4936    7.7014 H   0  0  0  0  0  0  0  0  0  0  0  0
    4.5900    0.1250    5.8197 H   0  0  0  0  0  0  0  0  0  0  0  0
    4.6847    5.7021    7.6610 H   0  0  0  0  0  0  0  0  0  0  0  0
    3.2633    3.9515    8.3936 H   0  0  0  0  0  0  0  0  0  0  0  0
    1.9753   -1.8042    9.3806 H   0  0  0  0  0  0  0  0  0  0  0  0
    3.0918   -2.0411    7.3063 H   0  0  0  0  0  0  0  0  0  0  0  0
   -0.4209   -2.2388    7.0262 H   0  0  0  0  0  0  0  0  0  0  0  0
   -0.5258    0.1202    7.3882 H   0  0  0  0  0  0  0  0  0  0  0  0
    0.2123    2.6157    4.4013 H   0  0  0  0  0  0  0  0  0  0  0  0
   -0.2953    3.9666    2.4572 H   0  0  0  0  0  0  0  0  0  0  0  0
  1  2  1  0
  1  5  1  0
  2  3  1  0
  2  4  1  0
  2 11  1  0
  5  6  1  0
  5  7  1  0
  5  8  1  0
  8  9  1  0
  8 36  1  0
  8 37  1  0
  9 14  1  0
  9 18  1  0
  9 19  1  0
 10 11  1  0
 10 15  1  0
 10 34  1  0
 10 35  1  0
 11 12  1  0
 11 13  1  0
 14 16  1  0
 14 20  1  0
 14 21  1  0
 15 17  1  0
 15 32  1  0
 15 33  1  0
 16 24  1  0
 16 30  1  0
 16 31  1  0
 17 22  1  0
 17 23  1  0
 17 27  1  0
 24 25  1  0
 24 26  1  0
 24 27  1  0
 27 28  1  0
 27 29  1  0
M  CHG  1   1   1
M  RAD  1   1   2
M  END
$$$$

     RDKit          3D

 37 37  0  0  0  0  0  0  0  0999 V2000
   -0.1155    0.2308    1.5243 S   0  0  0  0  0  2  0  0  0  0  0  0
   -1.4990   -0.2082    3.0779 Si  0  0  0  0  0  4  0  0  0  0  0  0
   -2.7271   -0.7463    2.4542 H   0  0  0  0  0  0  0  0  0  0  0  0
   -1.8518    1.0298    3.7599 H   0  0  0  0  0  0  0  0  0  0  0  0
    1.7959    0.7971    2.2648 Si  0  0  0  0  0  4  0  0  0  0  0  0
    2.2102   -0.1681    3.2780 H   0  0  0  0  0  0  0  0  0  0  0  0
    2.7388    0.8320    1.1302 H   0  0  0  0  0  0  0  0  0  0  0  0
    1.6366    2.8466    3.1957 Si  0  0  0  0  0  4  0  0  0  0  0  0
    3.5194    3.4099    4.1696 Si  0  0  0  0  0  4  0  0  0  0  0  0
    0.1987   -0.4300    6.2806 Si  0  0  0  0  0  4  0  0  0  0  0  0
   -0.6588   -1.6328    4.5770 Si  0  0  0  0  0  4  0  0  0  0  0  0
   -1.7014   -2.5138    5.1299 H   0  0  0  0  0  0  0  0  0  0  0  0
    0.3766   -2.4734    3.9651 H   0  0  0  0  0  0  0  0  0  0  0  0
    3.3090    4.0592    6.2656 Si  0  0  0  0  0  4  0  0  0  0  0  0
    2.1256   -1.3300    6.9547 Si  0  0  0  0  0  4  0  0  0  0  0  0
    1.2430    3.9290    7.0290 Si  0  0  0  0  0  4  0  0  0  0  0  0
    3.5816    0.2321    7.5791 Si  0  0  0  0  0  4  0  0  0  0  0  0
    4.4358    2.2333    4.1446 H   0  0  0  0  0  0  0  0  0  0  0  0
    4.2033    4.4396    3.3353 H   0  0  0  0  0  0  0  0  0  0  0  0
    3.8304    5.4546    6.3636 H   0  0  0  0  0  0  0  0  0  0  0  0
    4.1825    3.2720    7.1838 H   0  0  0  0  0  0  0  0  0  0  0  0
    4.8048   -0.4532    8.0258 H   0  0  0  0  0  0  0  0  0  0  0  0
    3.9280    1.0161    6.4037 H   0  0  0  0  0  0  0  0  0  0  0  0
    1.0246    2.6133    8.7811 Si  0  0  0  0  0  4  0  0  0  0  0  0
    0.6806    3.4196    9.9636 H   0  0  0  0  0  0  0  0  0  0  0  0
   -0.0957    1.6439    8.6143 H   0  0  0  0  0  0  0  0  0  0  0  0
    2.8450    1.4588    9.2617 Si  0  0  0  0  0  4  0  0  0  0  0  0
    3.9170    2.3494    9.6983 H   0  0  0  0  0  0  0  0  0  0  0  0
    2.5360    0.5623   10.3865 H   0  0  0  0  0  0  0  0  0  0  0  0
    0.7784    5.3073    7.3630 H   0  0  0  0  0  0  0  0  0  0  0  0
    0.2864    3.4581    5.9872 H   0  0  0  0  0  0  0  0  0  0  0  0
    2.7071   -2.0092    5.7694 H   0  0  0  0  0  0  0  0  0  0  0  0
    1.9243   -2.3544    7.9709 H   0  0  0  0  0  0  0  0  0  0  0  0
   -0.7320   -0.4586    7.4116 H   0  0  0  0  0  0  0  0  0  0  0  0
    0.4099    0.9480    5.8789 H   0  0  0  0  0  0  0  0  0  0  0  0
    0.4786    2.8269    4.0586 H   0  0  0  0  0  0  0  0  0  0  0  0
    1.3257    3.7703    2.0670 H   0  0  0  0  0  0  0  0  0  0  0  0
  1  2  1  0
  1  5  1  0
  2  3  1  0
  2  4  1  0
  2 11  1  0
  5  6  1  0
  5  7  1  0
  5  8  1  0
  8  9  1  0
  8 36  1  0
  8 37  1  0
  9 14  1  0
  9 18  1  0
  9 19  1  0
 10 11  1  0
 10 15  1  0
 10 34  1  0
 10 35  1  0
 11 12  1  0
 11 13  1  0
 14 16  1  0
 14 20  1  0
 14 21  1  0
 15 17  1  0
 15 32  1  0
 15 33  1  0
 16 24  1  0
 16 30  1  0
 16 31  1  0
 17 22  1  0
 17 23  1  0
 17 27  1  0
 24 25  1  0
 24 26  1  0
 24 27  1  0
 27 28  1  0
 27 29  1  0
M  CHG  1   1   1
M  RAD  1   1   2
M  END
$$$$
