
     RDKit          3D

 37 37  0  0  0  0  0  0  0  0999 V2000
   -2.1951   -1.7933   -3.2529 S   0  0  0  0  0  2  0  0  0  0  0  0
   -2.9505   -3.8258   -3.2534 Si  0  0  0  0  0  4  0  0  0  0  0  0
   -4.3912   -3.7969   -3.5336 H   0  0  0  0  0  0  0  0  0  0  0  0
   -2.7010   -4.3742   -1.9331 H   0  0  0  0  0  0  0  0  0  0  0  0
   -2.7715   -0.9719   -5.1775 Si  0  0  0  0  0  4  0  0  0  0  0  0
   -2.2176    0.3646   -5.3596 H   0  0  0  0  0  0  0  0  0  0  0  0
   -2.2596   -1.8836   -6.2176 H   0  0  0  0  0  0  0  0  0  0  0  0
   -4.9802   -0.9503   -5.2037 Si  0  0  0  0  0  4  0  0  0  0  0  0
   -5.8271   -0.9696   -7.2457 Si  0  0  0  0  0  4  0  0  0  0  0  0
   -3.1321   -6.4238   -5.8656 Si  0  0  0  0  0  4  0  0  0  0  0  0
   -1.8792   -4.9151   -4.8695 Si  0  0  0  0  0  4  0  0  0  0  0  0
   -1.4111   -3.9456   -5.8990 H   0  0  0  0  0  0  0  0  0  0  0  0
   -0.6456   -5.4823   -4.2770 H   0  0  0  0  0  0  0  0  0  0  0  0
   -8.0505   -1.2699   -7.0349 Si  0  0  0  0  0  4  0  0  0  0  0  0
   -4.8206   -7.1294   -4.6384 Si  0  0  0  0  0  4  0  0  0  0  0  0
   -8.5234   -2.0805   -4.9863 Si  0  0  0  0  0  4  0  0  0  0  0  0
   -6.7097   -7.2209   -5.8605 Si  0  0  0  0  0  4  0  0  0  0  0  0
   -5.2722   -2.1119   -8.0088 H   0  0  0  0  0  0  0  0  0  0  0  0
   -5.5622    0.2771   -7.9685 H   0  0  0  0  0  0  0  0  0  0  0  0
   -8.5406   -2.1810   -8.0524 H   0  0  0  0  0  0  0  0  0  0  0  0
   -8.6734    0.0445   -7.1610 H   0  0  0  0  0  0  0  0  0  0  0  0
   -7.7721   -7.7537   -4.9751 H   0  0  0  0  0  0  0  0  0  0  0  0
   -6.5633   -8.1494   -6.9770 H   0  0  0  0  0  0  0  0  0  0  0  0
   -8.6393   -4.2916   -5.0030 Si  0  0  0  0  0  4  0  0  0  0  0  0
  -10.0382   -4.6788   -5.2902 H   0  0  0  0  0  0  0  0  0  0  0  0
   -8.2566   -4.8311   -3.6898 H   0  0  0  0  0  0  0  0  0  0  0  0
   -7.2963   -5.1845   -6.5485 Si  0  0  0  0  0  4  0  0  0  0  0  0
   -8.0025   -5.3006   -7.8232 H   0  0  0  0  0  0  0  0  0  0  0  0
   -6.1013   -4.3509   -6.6673 H   0  0  0  0  0  0  0  0  0  0  0  0
   -9.7786   -1.5444   -4.4932 H   0  0  0  0  0  0  0  0  0  0  0  0
   -7.4170   -1.6600   -4.0797 H   0  0  0  0  0  0  0  0  0  0  0  0
   -4.5830   -8.5127   -4.1532 H   0  0  0  0  0  0  0  0  0  0  0  0
   -5.0505   -6.2819   -3.4769 H   0  0  0  0  0  0  0  0  0  0  0  0
   -3.6658   -5.8805   -7.1321 H   0  0  0  0  0  0  0  0  0  0  0  0
   -2.2850   -7.5855   -6.2447 H   0  0  0  0  0  0  0  0  0  0  0  0
   -5.4539   -2.1801   -4.5073 H   0  0  0  0  0  0  0  0  0  0  0  0
   -5.4856    0.2151   -4.4887 H   0  0  0  0  0  0  0  0  0  0  0  0
  1  2  1  0
  1  5  1  0
  2  3  1  0
  2  4  1  0
  2 11  1  0
  5  6  1  0
  5  7  1  0
  5  8  1  0
  8  9  1  0
  8 36  1  0
  8 37  1  0
  9 14  1  0
  9 18  1  0
  9 19  1  0
 10 11  1  0
 10 15  1  0
 10 34  1  0
 10 35  1  0
 11 12  1  0
 11 13  1  0
 14 16  1  0
 14 20  1  0
 14 21  1  0
 15 17  1  0
 15 32  1  0
 15 33  1  0
 16 24  1  0
 16 30  1  0
 16 31  1  0
 17 22  1  0
 17 23  1  0
 17 27  1  0
 24 25  1  0
 24 26  1  0
 24 27  1  0
 27 28  1  0
 27 29  1  0
M  CHG  1   1   1
M  RAD  1   1   2
M  END
$$$$

     RDKit          3D

 37 37  0  0  0  0  0  0  0  0999 V2000
   -2.1951   -1.7933   -3.2529 S   0  0  0  0  0  2  0  0  0  0  0  0
   -2.3624   -3.9369   -3.5338 Si  0  0  0  0  0  4  0  0  0  0  0  0
   -3.7820   -4.2907   -3.6541 H   0  0  0  0  0  0  0  0  0  0  0  0
   -1.7794   -4.5674   -2.3639 H   0  0  0  0  0  0  0  0  0  0  0  0
   -3.2531   -0.9153   -4.9325 Si  0  0  0  0  0  4  0  0  0  0  0  0
   -3.1160    0.5363   -4.9323 H   0  0  0  0  0  0  0  0  0  0  0  0
   -2.6744   -1.4835   -6.1643 H   0  0  0  0  0  0  0  0  0  0  0  0
   -5.3632   -1.5357   -4.7260 Si  0  0  0  0  0  4  0  0  0  0  0  0
   -6.4679   -1.5158   -6.6408 Si  0  0  0  0  0  4  0  0  0  0  0  0
   -2.2204   -6.0833   -6.5302 Si  0  0  0  0  0  4  0  0  0  0  0  0
   -1.2895   -4.4293   -5.4186 Si  0  0  0  0  0  4  0  0  0  0  0  0
   -1.2609   -3.2316   -6.3038 H   0  0  0  0  0  0  0  0  0  0  0  0
    0.1257   -4.6889   -5.0661 H   0  0  0  0  0  0  0  0  0  0  0  0
   -8.4693   -2.4780   -6.2577 Si  0  0  0  0  0  4  0  0  0  0  0  0
   -3.4516   -7.4150   -5.2788 Si  0  0  0  0  0  4  0  0  0  0  0  0
   -8.3935   -3.6691   -4.3464 Si  0  0  0  0  0  4  0  0  0  0  0  0
   -5.4055   -7.8820   -6.2961 Si  0  0  0  0  0  4  0  0  0  0  0  0
   -5.7445   -2.3282   -7.6466 H   0  0  0  0  0  0  0  0  0  0  0  0
   -6.6620   -0.1579   -7.1558 H   0  0  0  0  0  0  0  0  0  0  0  0
   -8.8401   -3.3410   -7.3638 H   0  0  0  0  0  0  0  0  0  0  0  0
   -9.4368   -1.3984   -6.0849 H   0  0  0  0  0  0  0  0  0  0  0  0
   -6.1391   -8.8198   -5.4135 H   0  0  0  0  0  0  0  0  0  0  0  0
   -5.1811   -8.5620   -7.5679 H   0  0  0  0  0  0  0  0  0  0  0  0
   -7.9067   -5.7929   -4.7407 Si  0  0  0  0  0  4  0  0  0  0  0  0
   -9.1748   -6.5273   -4.9456 H   0  0  0  0  0  0  0  0  0  0  0  0
   -7.2005   -6.3752   -3.5899 H   0  0  0  0  0  0  0  0  0  0  0  0
   -6.6181   -6.0301   -6.5498 Si  0  0  0  0  0  4  0  0  0  0  0  0
   -7.4484   -6.1680   -7.7451 H   0  0  0  0  0  0  0  0  0  0  0  0
   -5.7256   -4.8761   -6.6425 H   0  0  0  0  0  0  0  0  0  0  0  0
   -9.6588   -3.5970   -3.6395 H   0  0  0  0  0  0  0  0  0  0  0  0
   -7.3202   -3.0752   -3.4991 H   0  0  0  0  0  0  0  0  0  0  0  0
   -2.7782   -8.7224   -5.0724 H   0  0  0  0  0  0  0  0  0  0  0  0
   -3.7267   -6.8423   -3.9686 H   0  0  0  0  0  0  0  0  0  0  0  0
   -3.0642   -5.5480   -7.6190 H   0  0  0  0  0  0  0  0  0  0  0  0
   -1.1565   -6.8825   -7.1937 H   0  0  0  0  0  0  0  0  0  0  0  0
   -5.3762   -2.9348   -4.2122 H   0  0  0  0  0  0  0  0  0  0  0  0
   -6.0530   -0.6802   -3.7684 H   0  0  0  0  0  0  0  0  0  0  0  0
  1  2  1  0
  1  5  1  0
  2  3  1  0
  2  4  1  0
  2 11  1  0
  5  6  1  0
  5  7  1  0
  5  8  1  0
  8  9  1  0
  8 36  1  0
  8 37  1  0
  9 14  1  0
  9 18  1  0
  9 19  1  0
 10 11  1  0
 10 15  1  0
 10 34  1  0
 10 35  1  0
 11 12  1  0
 11 13  1  0
 14 16  1  0
 14 20  1  0
 14 21  1  0
 15 17  1  0
 15 32  1  0
 15 33  1  0
 16 24  1  0
 16 30  1  0
 16 31  1  0
 17 22  1  0
 17 23  1  0
 17 27  1  0
 24 25  1  0
 24 26  1  0
 24 27  1  0
 27 28  1  0
 27 29  1  0
M  CHG  1   1   1
M  RAD  1   1   2
M  END
$$$$

     RDKit          3D

 37 37  0  0  0  0  0  0  0  0999 V2000
   -2.1951   -1.7933   -3.2529 S   0  0  0  0  0  2  0  0  0  0  0  0
   -3.7226   -3.2748   -3.2029 Si  0  0  0  0  0  4  0  0  0  0  0  0
   -5.0283   -2.6605   -3.5549 H   0  0  0  0  0  0  0  0  0  0  0  0
   -3.8371   -3.8916   -1.8880 H   0  0  0  0  0  0  0  0  0  0  0  0
   -0.8701   -2.2261   -4.8708 Si  0  0  0  0  0  4  0  0  0  0  0  0
    0.4632   -1.6933   -4.6588 H   0  0  0  0  0  0  0  0  0  0  0  0
   -0.7508   -3.6945   -5.0089 H   0  0  0  0  0  0  0  0  0  0  0  0
   -1.7144   -1.4787   -6.8199 Si  0  0  0  0  0  4  0  0  0  0  0  0
   -0.6008   -2.4745   -8.4534 Si  0  0  0  0  0  4  0  0  0  0  0  0
   -1.7408   -6.2498   -4.1131 Si  0  0  0  0  0  4  0  0  0  0  0  0
   -3.3394   -4.8681   -4.7338 Si  0  0  0  0  0  4  0  0  0  0  0  0
   -2.9944   -4.2574   -6.0220 H   0  0  0  0  0  0  0  0  0  0  0  0
   -4.6058   -5.6466   -4.8413 H   0  0  0  0  0  0  0  0  0  0  0  0
   -1.8618   -2.8056  -10.2553 Si  0  0  0  0  0  4  0  0  0  0  0  0
   -0.4209   -6.8955   -5.7556 Si  0  0  0  0  0  4  0  0  0  0  0  0
   -3.6966   -3.9816   -9.7630 Si  0  0  0  0  0  4  0  0  0  0  0  0
   -1.3682   -7.9429   -7.4047 Si  0  0  0  0  0  4  0  0  0  0  0  0
    0.5503   -1.6732   -8.8306 H   0  0  0  0  0  0  0  0  0  0  0  0
   -0.1440   -3.8147   -7.9876 H   0  0  0  0  0  0  0  0  0  0  0  0
   -2.1951   -1.5321  -10.9112 H   0  0  0  0  0  0  0  0  0  0  0  0
   -1.0684   -3.6265  -11.2017 H   0  0  0  0  0  0  0  0  0  0  0  0
   -1.4111   -9.4045   -7.1069 H   0  0  0  0  0  0  0  0  0  0  0  0
   -0.4810   -7.8390   -8.6017 H   0  0  0  0  0  0  0  0  0  0  0  0
   -3.2831   -6.1821  -10.0065 Si  0  0  0  0  0  4  0  0  0  0  0  0
   -4.2589   -6.7311  -10.9327 H   0  0  0  0  0  0  0  0  0  0  0  0
   -1.9448   -6.3553  -10.6021 H   0  0  0  0  0  0  0  0  0  0  0  0
   -3.3529   -7.2039   -8.0083 Si  0  0  0  0  0  4  0  0  0  0  0  0
   -3.9703   -6.2982   -7.0624 H   0  0  0  0  0  0  0  0  0  0  0  0
   -4.2646   -8.3660   -8.1641 H   0  0  0  0  0  0  0  0  0  0  0  0
   -4.2041   -3.6809   -8.4314 H   0  0  0  0  0  0  0  0  0  0  0  0
   -4.7461   -3.5592  -10.7277 H   0  0  0  0  0  0  0  0  0  0  0  0
    0.3282   -5.7103   -6.2384 H   0  0  0  0  0  0  0  0  0  0  0  0
    0.6064   -7.7879   -5.1515 H   0  0  0  0  0  0  0  0  0  0  0  0
   -2.3051   -7.3972   -3.3623 H   0  0  0  0  0  0  0  0  0  0  0  0
   -0.8938   -5.5218   -3.1397 H   0  0  0  0  0  0  0  0  0  0  0  0
   -1.5626   -0.0019   -6.8746 H   0  0  0  0  0  0  0  0  0  0  0  0
   -3.1407   -1.7595   -6.8377 H   0  0  0  0  0  0  0  0  0  0  0  0
  1  2  1  0
  1  5  1  0
  2  3  1  0
  2  4  1  0
  2 11  1  0
  5  6  1  0
  5  7  1  0
  5  8  1  0
  8  9  1  0
  8 36  1  0
  8 37  1  0
  9 14  1  0
  9 18  1  0
  9 19  1  0
 10 11  1  0
 10 15  1  0
 10 34  1  0
 10 35  1  0
 11 12  1  0
 11 13  1  0
 14 16  1  0
 14 20  1  0
 14 21  1  0
 15 17  1  0
 15 32  1  0
 15 33  1  0
 16 24  1  0
 16 30  1  0
 16 31  1  0
 17 22  1  0
 17 23  1  0
 17 27  1  0
 24 25  1  0
 24 26  1  0
 24 27  1  0
 27 28  1  0
 27 29  1  0
M  CHG  1   1   1
M  RAD  1   1   2
M  END
$$$$

     RDKit          3D

 37 37  0  0  0  0  0  0  0  0999 V2000
   -2.1951   -1.7933   -3.2529 S   0  0  0  0  0  2  0  0  0  0  0  0
   -2.1708   -0.6699   -5.1073 Si  0  0  0  0  0  4  0  0  0  0  0  0
   -1.5600   -1.4965   -6.1553 H   0  0  0  0  0  0  0  0  0  0  0  0
   -1.3768    0.5223   -4.8736 H   0  0  0  0  0  0  0  0  0  0  0  0
   -3.2261   -3.6446   -3.7230 Si  0  0  0  0  0  4  0  0  0  0  0  0
   -3.4197   -4.4513   -2.5239 H   0  0  0  0  0  0  0  0  0  0  0  0
   -4.5289   -3.2864   -4.3141 H   0  0  0  0  0  0  0  0  0  0  0  0
   -1.9741   -4.6875   -5.2145 Si  0  0  0  0  0  4  0  0  0  0  0  0
   -3.1120   -6.1152   -6.4611 Si  0  0  0  0  0  4  0  0  0  0  0  0
   -4.6623   -0.2205   -7.7899 Si  0  0  0  0  0  4  0  0  0  0  0  0
   -4.2877   -0.2234   -5.6225 Si  0  0  0  0  0  4  0  0  0  0  0  0
   -5.1784   -1.2409   -4.9976 H   0  0  0  0  0  0  0  0  0  0  0  0
   -4.6401    1.0587   -4.9693 H   0  0  0  0  0  0  0  0  0  0  0  0
   -1.7284   -6.8098   -8.0986 Si  0  0  0  0  0  4  0  0  0  0  0  0
   -2.8608    0.1478   -9.0040 Si  0  0  0  0  0  4  0  0  0  0  0  0
    0.0057   -5.3839   -8.2925 Si  0  0  0  0  0  4  0  0  0  0  0  0
   -2.7642   -1.2832  -10.7399 Si  0  0  0  0  0  4  0  0  0  0  0  0
   -4.2662   -5.4276   -7.0858 H   0  0  0  0  0  0  0  0  0  0  0  0
   -3.5868   -7.2683   -5.6919 H   0  0  0  0  0  0  0  0  0  0  0  0
   -2.4378   -6.9002   -9.3612 H   0  0  0  0  0  0  0  0  0  0  0  0
   -1.2062   -8.1116   -7.6937 H   0  0  0  0  0  0  0  0  0  0  0  0
   -1.5587   -0.9288  -11.5259 H   0  0  0  0  0  0  0  0  0  0  0  0
   -3.9211   -1.1200  -11.6146 H   0  0  0  0  0  0  0  0  0  0  0  0
   -0.3860   -3.8461   -9.8366 Si  0  0  0  0  0  4  0  0  0  0  0  0
    0.1115   -4.3561  -11.1335 H   0  0  0  0  0  0  0  0  0  0  0  0
    0.3277   -2.6029   -9.5091 H   0  0  0  0  0  0  0  0  0  0  0  0
   -2.5634   -3.3806  -10.0152 Si  0  0  0  0  0  4  0  0  0  0  0  0
   -3.1927   -4.2780  -10.9825 H   0  0  0  0  0  0  0  0  0  0  0  0
   -3.1761   -3.4964   -8.6930 H   0  0  0  0  0  0  0  0  0  0  0  0
    1.2257   -6.0936   -8.6302 H   0  0  0  0  0  0  0  0  0  0  0  0
    0.1744   -4.7129   -6.9720 H   0  0  0  0  0  0  0  0  0  0  0  0
   -2.8906    1.5078   -9.5996 H   0  0  0  0  0  0  0  0  0  0  0  0
   -1.6365    0.0280   -8.2249 H   0  0  0  0  0  0  0  0  0  0  0  0
   -5.2515   -1.5117   -8.2021 H   0  0  0  0  0  0  0  0  0  0  0  0
   -5.6834    0.8132   -8.1052 H   0  0  0  0  0  0  0  0  0  0  0  0
   -1.3969   -3.6561   -6.1227 H   0  0  0  0  0  0  0  0  0  0  0  0
   -0.8819   -5.3939   -4.5566 H   0  0  0  0  0  0  0  0  0  0  0  0
  1  2  1  0
  1  5  1  0
  2  3  1  0
  2  4  1  0
  2 11  1  0
  5  6  1  0
  5  7  1  0
  5  8  1  0
  8  9  1  0
  8 36  1  0
  8 37  1  0
  9 14  1  0
  9 18  1  0
  9 19  1  0
 10 11  1  0
 10 15  1  0
 10 34  1  0
 10 35  1  0
 11 12  1  0
 11 13  1  0
 14 16  1  0
 14 20  1  0
 14 21  1  0
 15 17  1  0
 15 32  1  0
 15 33  1  0
 16 24  1  0
 16 30  1  0
 16 31  1  0
 17 22  1  0
 17 23  1  0
 17 27  1  0
 24 25  1  0
 24 26  1  0
 24 27  1  0
 27 28  1  0
 27 29  1  0
M  CHG  1   1   1
M  RAD  1   1   2
M  END
$$$$

     RDKit          3D

 37 37  0  0  0  0  0  0  0  0999 V2000
   -2.1951   -1.7933   -3.2529 S   0  0  0  0  0  2  0  0  0  0  0  0
   -1.0672   -3.2299   -4.3760 Si  0  0  0  0  0  4  0  0  0  0  0  0
   -2.0012   -3.8625   -5.3315 H   0  0  0  0  0  0  0  0  0  0  0  0
   -0.4849   -4.1840   -3.4447 H   0  0  0  0  0  0  0  0  0  0  0  0
   -3.8410   -1.0250   -4.3653 Si  0  0  0  0  0  4  0  0  0  0  0  0
   -4.8881   -0.6195   -3.3853 H   0  0  0  0  0  0  0  0  0  0  0  0
   -3.4774    0.1714   -5.1157 H   0  0  0  0  0  0  0  0  0  0  0  0
   -4.7226   -2.5223   -5.7364 Si  0  0  0  0  0  4  0  0  0  0  0  0
   -3.8584   -2.3973   -7.7873 Si  0  0  0  0  0  4  0  0  0  0  0  0
    1.1600   -3.5246   -7.2781 Si  0  0  0  0  0  4  0  0  0  0  0  0
    0.5578   -2.2759   -5.5364 Si  0  0  0  0  0  4  0  0  0  0  0  0
    1.7165   -1.9619   -4.6916 H   0  0  0  0  0  0  0  0  0  0  0  0
    0.0567   -0.9905   -6.0683 H   0  0  0  0  0  0  0  0  0  0  0  0
   -4.7464   -4.0132   -9.0410 Si  0  0  0  0  0  4  0  0  0  0  0  0
    1.7453   -5.5763   -6.6694 Si  0  0  0  0  0  4  0  0  0  0  0  0
   -4.1685   -6.0173   -8.2230 Si  0  0  0  0  0  4  0  0  0  0  0  0
    0.0685   -6.7377   -5.8388 Si  0  0  0  0  0  4  0  0  0  0  0  0
   -2.3892   -2.5393   -7.7181 H   0  0  0  0  0  0  0  0  0  0  0  0
   -4.2387   -1.1051   -8.3829 H   0  0  0  0  0  0  0  0  0  0  0  0
   -6.2152   -3.8556   -9.0009 H   0  0  0  0  0  0  0  0  0  0  0  0
   -4.3009   -3.9165  -10.4365 H   0  0  0  0  0  0  0  0  0  0  0  0
   -0.8553   -5.9497   -5.0311 H   0  0  0  0  0  0  0  0  0  0  0  0
    0.6345   -7.7796   -4.9332 H   0  0  0  0  0  0  0  0  0  0  0  0
   -2.0674   -6.4750   -8.8351 Si  0  0  0  0  0  4  0  0  0  0  0  0
   -1.3503   -5.2364   -9.0628 H   0  0  0  0  0  0  0  0  0  0  0  0
   -2.1551   -7.1720  -10.1506 H   0  0  0  0  0  0  0  0  0  0  0  0
   -1.0681   -7.8421   -7.4171 Si  0  0  0  0  0  4  0  0  0  0  0  0
   -0.2082   -8.7919   -8.0977 H   0  0  0  0  0  0  0  0  0  0  0  0
   -2.1274   -8.6152   -6.7091 H   0  0  0  0  0  0  0  0  0  0  0  0
   -5.0970   -7.0044   -8.8164 H   0  0  0  0  0  0  0  0  0  0  0  0
   -4.3276   -6.0298   -6.7772 H   0  0  0  0  0  0  0  0  0  0  0  0
    2.3246   -6.2539   -7.8275 H   0  0  0  0  0  0  0  0  0  0  0  0
    2.7983   -5.4660   -5.6492 H   0  0  0  0  0  0  0  0  0  0  0  0
    2.3468   -2.8838   -7.8884 H   0  0  0  0  0  0  0  0  0  0  0  0
    0.0972   -3.4962   -8.2651 H   0  0  0  0  0  0  0  0  0  0  0  0
   -4.6120   -3.8886   -5.2452 H   0  0  0  0  0  0  0  0  0  0  0  0
   -6.1757   -2.2149   -5.8632 H   0  0  0  0  0  0  0  0  0  0  0  0
  1  2  1  0
  1  5  1  0
  2  3  1  0
  2  4  1  0
  2 11  1  0
  5  6  1  0
  5  7  1  0
  5  8  1  0
  8  9  1  0
  8 36  1  0
  8 37  1  0
  9 14  1  0
  9 18  1  0
  9 19  1  0
 10 11  1  0
 10 15  1  0
 10 34  1  0
 10 35  1  0
 11 12  1  0
 11 13  1  0
 14 16  1  0
 14 20  1  0
 14 21  1  0
 15 17  1  0
 15 32  1  0
 15 33  1  0
 16 24  1  0
 16 30  1  0
 16 31  1  0
 17 22  1  0
 17 23  1  0
 17 27  1  0
 24 25  1  0
 24 26  1  0
 24 27  1  0
 27 28  1  0
 27 29  1  0
M  CHG  1   1   1
M  RAD  1   1   2
M  END
$$$$

     RDKit          3D

 37 37  0  0  0  0  0  0  0  0999 V2000
   -2.1951   -1.7933   -3.2529 S   0  0  0  0  0  2  0  0  0  0  0  0
   -4.2134   -2.5723   -3.1069 Si  0  0  0  0  0  4  0  0  0  0  0  0
   -5.0775   -1.8285   -4.0315 H   0  0  0  0  0  0  0  0  0  0  0  0
   -4.6485   -2.3760   -1.7363 H   0  0  0  0  0  0  0  0  0  0  0  0
   -1.6806   -1.9376   -5.3566 Si  0  0  0  0  0  4  0  0  0  0  0  0
   -0.2918   -1.5539   -5.5800 H   0  0  0  0  0  0  0  0  0  0  0  0
   -1.8972   -3.3369   -5.7689 H   0  0  0  0  0  0  0  0  0  0  0  0
   -3.0781   -0.6032   -6.4273 Si  0  0  0  0  0  4  0  0  0  0  0  0
   -3.3555   -1.1555   -8.5499 Si  0  0  0  0  0  4  0  0  0  0  0  0
   -5.9314   -5.3874   -4.7590 Si  0  0  0  0  0  4  0  0  0  0  0  0
   -4.1259   -4.7144   -3.6983 Si  0  0  0  0  0  4  0  0  0  0  0  0
   -2.9525   -4.9386   -4.5881 H   0  0  0  0  0  0  0  0  0  0  0  0
   -3.8437   -5.4992   -2.4739 H   0  0  0  0  0  0  0  0  0  0  0  0
   -5.0377    0.1142   -9.3475 Si  0  0  0  0  0  4  0  0  0  0  0  0
   -7.7159   -4.1635   -4.3437 Si  0  0  0  0  0  4  0  0  0  0  0  0
   -6.2343    0.9630   -7.6371 Si  0  0  0  0  0  4  0  0  0  0  0  0
   -8.8291   -3.7073   -6.2471 Si  0  0  0  0  0  4  0  0  0  0  0  0
   -3.7564   -2.5782   -8.6506 H   0  0  0  0  0  0  0  0  0  0  0  0
   -2.1455   -0.9303   -9.3450 H   0  0  0  0  0  0  0  0  0  0  0  0
   -5.8999   -0.6676  -10.2141 H   0  0  0  0  0  0  0  0  0  0  0  0
   -4.4283    1.2245  -10.0738 H   0  0  0  0  0  0  0  0  0  0  0  0
  -10.0346   -2.9328   -5.8680 H   0  0  0  0  0  0  0  0  0  0  0  0
   -9.2825   -4.9353   -6.8925 H   0  0  0  0  0  0  0  0  0  0  0  0
   -7.9748   -0.3192   -7.1585 Si  0  0  0  0  0  4  0  0  0  0  0  0
   -9.1252    0.1428   -7.9663 H   0  0  0  0  0  0  0  0  0  0  0  0
   -8.3168   -0.2016   -5.7332 H   0  0  0  0  0  0  0  0  0  0  0  0
   -7.5745   -2.4698   -7.6105 Si  0  0  0  0  0  4  0  0  0  0  0  0
   -7.9401   -2.7705   -8.9936 H   0  0  0  0  0  0  0  0  0  0  0  0
   -6.1623   -2.7465   -7.3529 H   0  0  0  0  0  0  0  0  0  0  0  0
   -6.7030    2.3014   -7.9456 H   0  0  0  0  0  0  0  0  0  0  0  0
   -5.3317    1.0171   -6.4518 H   0  0  0  0  0  0  0  0  0  0  0  0
   -8.6739   -4.8977   -3.4785 H   0  0  0  0  0  0  0  0  0  0  0  0
   -7.3835   -2.9110   -3.6796 H   0  0  0  0  0  0  0  0  0  0  0  0
   -5.6898   -5.3873   -6.2170 H   0  0  0  0  0  0  0  0  0  0  0  0
   -6.2123   -6.8006   -4.3919 H   0  0  0  0  0  0  0  0  0  0  0  0
   -4.4057   -0.7055   -5.7574 H   0  0  0  0  0  0  0  0  0  0  0  0
   -2.6212    0.7788   -6.3498 H   0  0  0  0  0  0  0  0  0  0  0  0
  1  2  1  0
  1  5  1  0
  2  3  1  0
  2  4  1  0
  2 11  1  0
  5  6  1  0
  5  7  1  0
  5  8  1  0
  8  9  1  0
  8 36  1  0
  8 37  1  0
  9 14  1  0
  9 18  1  0
  9 19  1  0
 10 11  1  0
 10 15  1  0
 10 34  1  0
 10 35  1  0
 11 12  1  0
 11 13  1  0
 14 16  1  0
 14 20  1  0
 14 21  1  0
 15 17  1  0
 15 32  1  0
 15 33  1  0
 16 24  1  0
 16 30  1  0
 16 31  1  0
 17 22  1  0
 17 23  1  0
 17 27  1  0
 24 25  1  0
 24 26  1  0
 24 27  1  0
 27 28  1  0
 27 29  1  0
M  CHG  1   1   1
M  RAD  1   1   2
M  END
$$$$

     RDKit          3D

 37 37  0  0  0  0  0  0  0  0999 V2000
   -2.1951   -1.7933   -3.2529 S   0  0  0  0  0  2  0  0  0  0  0  0
   -3.1099   -3.7584   -3.1942 Si  0  0  0  0  0  4  0  0  0  0  0  0
   -4.5333   -3.6297   -3.5288 H   0  0  0  0  0  0  0  0  0  0  0  0
   -2.9495   -4.2636   -1.8432 H   0  0  0  0  0  0  0  0  0  0  0  0
   -2.6389   -1.0182   -5.2311 Si  0  0  0  0  0  4  0  0  0  0  0  0
   -1.9744    0.2611   -5.4498 H   0  0  0  0  0  0  0  0  0  0  0  0
   -2.1667   -2.0138   -6.2113 H   0  0  0  0  0  0  0  0  0  0  0  0
   -4.8367   -0.8252   -5.3404 Si  0  0  0  0  0  4  0  0  0  0  0  0
   -5.6131   -0.8716   -7.4097 Si  0  0  0  0  0  4  0  0  0  0  0  0
   -3.4101   -6.4510   -5.6973 Si  0  0  0  0  0  4  0  0  0  0  0  0
   -2.0751   -5.0010   -4.7211 Si  0  0  0  0  0  4  0  0  0  0  0  0
   -1.4967   -4.1192   -5.7731 H   0  0  0  0  0  0  0  0  0  0  0  0
   -0.9113   -5.6352   -4.0593 H   0  0  0  0  0  0  0  0  0  0  0  0
   -7.8593   -0.9871   -7.2692 Si  0  0  0  0  0  4  0  0  0  0  0  0
   -5.1899   -6.9654   -4.5046 Si  0  0  0  0  0  4  0  0  0  0  0  0
   -8.4641   -1.6636   -5.2066 Si  0  0  0  0  0  4  0  0  0  0  0  0
   -7.0379   -6.9647   -5.7911 Si  0  0  0  0  0  4  0  0  0  0  0  0
   -5.1258   -2.0875   -8.1019 H   0  0  0  0  0  0  0  0  0  0  0  0
   -5.2255    0.3161   -8.1751 H   0  0  0  0  0  0  0  0  0  0  0  0
   -8.3859   -1.9027   -8.2641 H   0  0  0  0  0  0  0  0  0  0  0  0
   -8.3707    0.3648   -7.4747 H   0  0  0  0  0  0  0  0  0  0  0  0
   -8.1687   -7.3717   -4.9238 H   0  0  0  0  0  0  0  0  0  0  0  0
   -6.9286   -7.9520   -6.8605 H   0  0  0  0  0  0  0  0  0  0  0  0
   -8.7555   -3.8573   -5.1326 Si  0  0  0  0  0  4  0  0  0  0  0  0
  -10.1704   -4.1467   -5.4548 H   0  0  0  0  0  0  0  0  0  0  0  0
   -8.4615   -4.3644   -3.7841 H   0  0  0  0  0  0  0  0  0  0  0  0
   -7.4367   -4.9223   -6.5873 Si  0  0  0  0  0  4  0  0  0  0  0  0
   -8.1066   -5.0411   -7.8813 H   0  0  0  0  0  0  0  0  0  0  0  0
   -6.1757   -4.1911   -6.6972 H   0  0  0  0  0  0  0  0  0  0  0  0
   -9.6884   -1.0090   -4.7841 H   0  0  0  0  0  0  0  0  0  0  0  0
   -7.3589   -1.2900   -4.2784 H   0  0  0  0  0  0  0  0  0  0  0  0
   -5.0799   -8.3395   -3.9519 H   0  0  0  0  0  0  0  0  0  0  0  0
   -5.3905   -6.0503   -3.3900 H   0  0  0  0  0  0  0  0  0  0  0  0
   -3.8557   -5.9261   -7.0050 H   0  0  0  0  0  0  0  0  0  0  0  0
   -2.6461   -7.6915   -5.9944 H   0  0  0  0  0  0  0  0  0  0  0  0
   -5.4302   -1.9810   -4.6099 H   0  0  0  0  0  0  0  0  0  0  0  0
   -5.2713    0.4077   -4.6954 H   0  0  0  0  0  0  0  0  0  0  0  0
  1  2  1  0
  1  5  1  0
  2  3  1  0
  2  4  1  0
  2 11  1  0
  5  6  1  0
  5  7  1  0
  5  8  1  0
  8  9  1  0
  8 36  1  0
  8 37  1  0
  9 14  1  0
  9 18  1  0
  9 19  1  0
 10 11  1  0
 10 15  1  0
 10 34  1  0
 10 35  1  0
 11 12  1  0
 11 13  1  0
 14 16  1  0
 14 20  1  0
 14 21  1  0
 15 17  1  0
 15 32  1  0
 15 33  1  0
 16 24  1  0
 16 30  1  0
 16 31  1  0
 17 22  1  0
 17 23  1  0
 17 27  1  0
 24 25  1  0
 24 26  1  0
 24 27  1  0
 27 28  1  0
 27 29  1  0
M  CHG  1   1   1
M  RAD  1   1   2
M  END
$$$$

     RDKit          3D

 37 37  0  0  0  0  0  0  0  0999 V2000
   -2.1951   -1.7933   -3.2529 S   0  0  0  0  0  2  0  0  0  0  0  0
   -3.4281   -3.5704   -3.0999 Si  0  0  0  0  0  4  0  0  0  0  0  0
   -4.7846   -3.2482   -3.5589 H   0  0  0  0  0  0  0  0  0  0  0  0
   -3.4442   -3.9596   -1.7019 H   0  0  0  0  0  0  0  0  0  0  0  0
   -2.3712   -1.1552   -5.3200 Si  0  0  0  0  0  4  0  0  0  0  0  0
   -1.4887   -0.0271   -5.5932 H   0  0  0  0  0  0  0  0  0  0  0  0
   -2.0088   -2.3052   -6.1692 H   0  0  0  0  0  0  0  0  0  0  0  0
   -4.4935   -0.6231   -5.6238 Si  0  0  0  0  0  4  0  0  0  0  0  0
   -5.1284   -0.7473   -7.7377 Si  0  0  0  0  0  4  0  0  0  0  0  0
   -4.0094   -6.4126   -5.3781 Si  0  0  0  0  0  4  0  0  0  0  0  0
   -2.5177   -5.1071   -4.4250 Si  0  0  0  0  0  4  0  0  0  0  0  0
   -1.7315   -4.4374   -5.4985 H   0  0  0  0  0  0  0  0  0  0  0  0
   -1.5229   -5.8520   -3.6186 H   0  0  0  0  0  0  0  0  0  0  0  0
   -7.3664   -0.4859   -7.7708 Si  0  0  0  0  0  4  0  0  0  0  0  0
   -5.9250   -6.5145   -4.2942 Si  0  0  0  0  0  4  0  0  0  0  0  0
   -8.2108   -0.8504   -5.7137 Si  0  0  0  0  0  4  0  0  0  0  0  0
   -7.6578   -6.3432   -5.7220 Si  0  0  0  0  0  4  0  0  0  0  0  0
   -4.8070   -2.0877   -8.2808 H   0  0  0  0  0  0  0  0  0  0  0  0
   -4.4975    0.2817   -8.5683 H   0  0  0  0  0  0  0  0  0  0  0  0
   -7.9722   -1.3982   -8.7228 H   0  0  0  0  0  0  0  0  0  0  0  0
   -7.6293    0.9039   -8.1328 H   0  0  0  0  0  0  0  0  0  0  0  0
   -8.8956   -6.4760   -4.9177 H   0  0  0  0  0  0  0  0  0  0  0  0
   -7.6451   -7.4355   -6.6900 H   0  0  0  0  0  0  0  0  0  0  0  0
   -8.8700   -2.9507   -5.4751 Si  0  0  0  0  0  4  0  0  0  0  0  0
  -10.2890   -3.0391   -5.8852 H   0  0  0  0  0  0  0  0  0  0  0  0
   -8.7548   -3.3635   -4.0686 H   0  0  0  0  0  0  0  0  0  0  0  0
   -7.6552   -4.3516   -6.7208 Si  0  0  0  0  0  4  0  0  0  0  0  0
   -8.2486   -4.4877   -8.0498 H   0  0  0  0  0  0  0  0  0  0  0  0
   -6.2850   -3.8469   -6.7903 H   0  0  0  0  0  0  0  0  0  0  0  0
   -9.3334    0.0308   -5.4500 H   0  0  0  0  0  0  0  0  0  0  0  0
   -7.1224   -0.5698   -4.7343 H   0  0  0  0  0  0  0  0  0  0  0  0
   -6.0836   -7.8273   -3.6182 H   0  0  0  0  0  0  0  0  0  0  0  0
   -6.0425   -5.4740   -3.2825 H   0  0  0  0  0  0  0  0  0  0  0  0
   -4.2734   -5.9540   -6.7580 H   0  0  0  0  0  0  0  0  0  0  0  0
   -3.4461   -7.7828   -5.5042 H   0  0  0  0  0  0  0  0  0  0  0  0
   -5.3192   -1.5910   -4.8472 H   0  0  0  0  0  0  0  0  0  0  0  0
   -4.7569    0.7209   -5.1248 H   0  0  0  0  0  0  0  0  0  0  0  0
  1  2  1  0
  1  5  1  0
  2  3  1  0
  2  4  1  0
  2 11  1  0
  5  6  1  0
  5  7  1  0
  5  8  1  0
  8  9  1  0
  8 36  1  0
  8 37  1  0
  9 14  1  0
  9 18  1  0
  9 19  1  0
 10 11  1  0
 10 15  1  0
 10 34  1  0
 10 35  1  0
 11 12  1  0
 11 13  1  0
 14 16  1  0
 14 20  1  0
 14 21  1  0
 15 17  1  0
 15 32  1  0
 15 33  1  0
 16 24  1  0
 16 30  1  0
 16 31  1  0
 17 22  1  0
 17 23  1  0
 17 27  1  0
 24 25  1  0
 24 26  1  0
 24 27  1  0
 27 28  1  0
 27 29  1  0
M  CHG  1   1   1
M  RAD  1   1   2
M  END
$$$$

     RDKit          3D

 37 37  0  0  0  0  0  0  0  0999 V2000
   -2.1951   -1.7933   -3.2529 S   0  0  0  0  0  2  0  0  0  0  0  0
   -3.1242   -3.7515   -3.1893 Si  0  0  0  0  0  4  0  0  0  0  0  0
   -4.5456   -3.6139   -3.5290 H   0  0  0  0  0  0  0  0  0  0  0  0
   -2.9718   -4.2524   -1.8357 H   0  0  0  0  0  0  0  0  0  0  0  0
   -2.6269   -1.0231   -5.2357 Si  0  0  0  0  0  4  0  0  0  0  0  0
   -1.9525    0.2505   -5.4573 H   0  0  0  0  0  0  0  0  0  0  0  0
   -2.1587   -2.0261   -6.2103 H   0  0  0  0  0  0  0  0  0  0  0  0
   -4.8229   -0.8147   -5.3528 Si  0  0  0  0  0  4  0  0  0  0  0  0
   -5.5930   -0.8639   -7.4245 Si  0  0  0  0  0  4  0  0  0  0  0  0
   -3.4358   -6.4520   -5.6824 Si  0  0  0  0  0  4  0  0  0  0  0  0
   -2.0935   -5.0077   -4.7077 Si  0  0  0  0  0  4  0  0  0  0  0  0
   -1.5054   -4.1344   -5.7614 H   0  0  0  0  0  0  0  0  0  0  0  0
   -0.9365   -5.6476   -4.0396 H   0  0  0  0  0  0  0  0  0  0  0  0
   -7.8404   -0.9626   -7.2908 Si  0  0  0  0  0  4  0  0  0  0  0  0
   -5.2231   -6.9488   -4.4935 Si  0  0  0  0  0  4  0  0  0  0  0  0
   -8.4566   -1.6264   -5.2275 Si  0  0  0  0  0  4  0  0  0  0  0  0
   -7.0669   -6.9400   -5.7859 Si  0  0  0  0  0  4  0  0  0  0  0  0
   -5.1122   -2.0861   -8.1102 H   0  0  0  0  0  0  0  0  0  0  0  0
   -5.1943    0.3179   -8.1934 H   0  0  0  0  0  0  0  0  0  0  0  0
   -8.3704   -1.8784   -8.2838 H   0  0  0  0  0  0  0  0  0  0  0  0
   -8.3413    0.3921   -7.5034 H   0  0  0  0  0  0  0  0  0  0  0  0
   -8.2034   -7.3353   -4.9207 H   0  0  0  0  0  0  0  0  0  0  0  0
   -6.9613   -7.9324   -6.8510 H   0  0  0  0  0  0  0  0  0  0  0  0
   -8.7641   -3.8176   -5.1456 Si  0  0  0  0  0  4  0  0  0  0  0  0
  -10.1800   -4.0981   -5.4712 H   0  0  0  0  0  0  0  0  0  0  0  0
   -8.4782   -4.3214   -3.7941 H   0  0  0  0  0  0  0  0  0  0  0  0
   -7.4484   -4.8980   -6.5917 Si  0  0  0  0  0  4  0  0  0  0  0  0
   -8.1149   -5.0172   -7.8873 H   0  0  0  0  0  0  0  0  0  0  0  0
   -6.1817   -4.1763   -6.7004 H   0  0  0  0  0  0  0  0  0  0  0  0
   -9.6776   -0.9613   -4.8116 H   0  0  0  0  0  0  0  0  0  0  0  0
   -7.3518   -1.2569   -4.2972 H   0  0  0  0  0  0  0  0  0  0  0  0
   -5.1248   -8.3213   -3.9349 H   0  0  0  0  0  0  0  0  0  0  0  0
   -5.4206   -6.0277   -3.3832 H   0  0  0  0  0  0  0  0  0  0  0  0
   -3.8734   -5.9293   -6.9936 H   0  0  0  0  0  0  0  0  0  0  0  0
   -2.6798   -7.6992   -5.9720 H   0  0  0  0  0  0  0  0  0  0  0  0
   -5.4271   -1.9632   -4.6196 H   0  0  0  0  0  0  0  0  0  0  0  0
   -5.2507    0.4239   -4.7143 H   0  0  0  0  0  0  0  0  0  0  0  0
  1  2  1  0
  1  5  1  0
  2  3  1  0
  2  4  1  0
  2 11  1  0
  5  6  1  0
  5  7  1  0
  5  8  1  0
  8  9  1  0
  8 36  1  0
  8 37  1  0
  9 14  1  0
  9 18  1  0
  9 19  1  0
 10 11  1  0
 10 15  1  0
 10 34  1  0
 10 35  1  0
 11 12  1  0
 11 13  1  0
 14 16  1  0
 14 20  1  0
 14 21  1  0
 15 17  1  0
 15 32  1  0
 15 33  1  0
 16 24  1  0
 16 30  1  0
 16 31  1  0
 17 22  1  0
 17 23  1  0
 17 27  1  0
 24 25  1  0
 24 26  1  0
 24 27  1  0
 27 28  1  0
 27 29  1  0
M  CHG  1   1   1
M  RAD  1   1   2
M  END
$$$$

     RDKit          3D

 37 37  0  0  0  0  0  0  0  0999 V2000
   -2.1951   -1.7933   -3.2529 S   0  0  0  0  0  2  0  0  0  0  0  0
   -1.0770   -2.0808   -5.0883 Si  0  0  0  0  0  4  0  0  0  0  0  0
   -1.1648   -3.4923   -5.4817 H   0  0  0  0  0  0  0  0  0  0  0  0
    0.3000   -1.7158   -4.8108 H   0  0  0  0  0  0  0  0  0  0  0  0
   -4.1890   -2.5376   -3.6791 Si  0  0  0  0  0  4  0  0  0  0  0  0
   -5.0866   -2.2930   -2.5564 H   0  0  0  0  0  0  0  0  0  0  0  0
   -4.6734   -1.8373   -4.8832 H   0  0  0  0  0  0  0  0  0  0  0  0
   -3.9676   -4.6965   -4.0912 Si  0  0  0  0  0  4  0  0  0  0  0  0
   -5.6038   -5.5188   -5.3298 Si  0  0  0  0  0  4  0  0  0  0  0  0
   -1.9680   -1.6846   -8.6456 Si  0  0  0  0  0  4  0  0  0  0  0  0
   -2.0277   -0.7958   -6.6346 Si  0  0  0  0  0  4  0  0  0  0  0  0
   -3.4528   -0.5539   -6.2747 H   0  0  0  0  0  0  0  0  0  0  0  0
   -1.3761    0.5329   -6.5659 H   0  0  0  0  0  0  0  0  0  0  0  0
   -5.0151   -7.6209   -5.8894 Si  0  0  0  0  0  4  0  0  0  0  0  0
   -0.3674   -3.1749   -8.9130 Si  0  0  0  0  0  4  0  0  0  0  0  0
   -2.7998   -7.9022   -5.5874 Si  0  0  0  0  0  4  0  0  0  0  0  0
   -1.1466   -4.9975   -9.9814 Si  0  0  0  0  0  4  0  0  0  0  0  0
   -5.7397   -4.7255   -6.5736 H   0  0  0  0  0  0  0  0  0  0  0  0
   -6.8842   -5.5364   -4.6177 H   0  0  0  0  0  0  0  0  0  0  0  0
   -5.3650   -7.8977   -7.2702 H   0  0  0  0  0  0  0  0  0  0  0  0
   -5.7179   -8.5189   -4.9778 H   0  0  0  0  0  0  0  0  0  0  0  0
    0.0023   -5.9155  -10.1647 H   0  0  0  0  0  0  0  0  0  0  0  0
   -1.6456   -4.6499  -11.3082 H   0  0  0  0  0  0  0  0  0  0  0  0
   -1.6785   -7.5266   -7.4594 Si  0  0  0  0  0  4  0  0  0  0  0  0
   -1.5660   -8.8054   -8.1952 H   0  0  0  0  0  0  0  0  0  0  0  0
   -0.3275   -7.0336   -7.1531 H   0  0  0  0  0  0  0  0  0  0  0  0
   -2.7000   -6.0199   -8.7542 Si  0  0  0  0  0  4  0  0  0  0  0  0
   -3.6481   -6.6834   -9.6475 H   0  0  0  0  0  0  0  0  0  0  0  0
   -3.3622   -5.0387   -7.8964 H   0  0  0  0  0  0  0  0  0  0  0  0
   -2.5061   -9.2447   -5.1211 H   0  0  0  0  0  0  0  0  0  0  0  0
   -2.3667   -6.9158   -4.5569 H   0  0  0  0  0  0  0  0  0  0  0  0
    0.7216   -2.6373   -9.7677 H   0  0  0  0  0  0  0  0  0  0  0  0
    0.2208   -3.5861   -7.6460 H   0  0  0  0  0  0  0  0  0  0  0  0
   -3.2637   -2.3255   -8.9529 H   0  0  0  0  0  0  0  0  0  0  0  0
   -1.7999   -0.6018   -9.6506 H   0  0  0  0  0  0  0  0  0  0  0  0
   -2.6942   -4.8865   -4.8423 H   0  0  0  0  0  0  0  0  0  0  0  0
   -3.8902   -5.4467   -2.8439 H   0  0  0  0  0  0  0  0  0  0  0  0
  1  2  1  0
  1  5  1  0
  2  3  1  0
  2  4  1  0
  2 11  1  0
  5  6  1  0
  5  7  1  0
  5  8  1  0
  8  9  1  0
  8 36  1  0
  8 37  1  0
  9 14  1  0
  9 18  1  0
  9 19  1  0
 10 11  1  0
 10 15  1  0
 10 34  1  0
 10 35  1  0
 11 12  1  0
 11 13  1  0
 14 16  1  0
 14 20  1  0
 14 21  1  0
 15 17  1  0
 15 32  1  0
 15 33  1  0
 16 24  1  0
 16 30  1  0
 16 31  1  0
 17 22  1  0
 17 23  1  0
 17 27  1  0
 24 25  1  0
 24 26  1  0
 24 27  1  0
 27 28  1  0
 27 29  1  0
M  CHG  1   1   1
M  RAD  1   1   2
M  END
$$$$
