
     RDKit          3D

 37 37  0  0  0  0  0  0  0  0999 V2000
   -1.9855    0.0671    2.5037 S   0  0  0  0  0  2  0  0  0  0  0  0
   -2.8009    1.9684    2.9806 Si  0  0  0  0  0  4  0  0  0  0  0  0
   -3.2660    2.6266    1.7665 H   0  0  0  0  0  0  0  0  0  0  0  0
   -1.7732    2.8596    3.5826 H   0  0  0  0  0  0  0  0  0  0  0  0
   -1.7296   -1.1692    4.2374 Si  0  0  0  0  0  4  0  0  0  0  0  0
   -3.0077   -1.6914    4.6804 H   0  0  0  0  0  0  0  0  0  0  0  0
   -0.9014   -2.3327    3.8102 H   0  0  0  0  0  0  0  0  0  0  0  0
   -0.6151   -0.0943    5.8129 Si  0  0  0  0  0  4  0  0  0  0  0  0
   -0.8286   -1.0400    7.8094 Si  0  0  0  0  0  4  0  0  0  0  0  0
   -6.1496    0.6083    3.7153 Si  0  0  0  0  0  4  0  0  0  0  0  0
   -4.4569    1.8071    4.4835 Si  0  0  0  0  0  4  0  0  0  0  0  0
   -3.9008    1.1483    5.6678 H   0  0  0  0  0  0  0  0  0  0  0  0
   -4.8992    3.1812    4.7841 H   0  0  0  0  0  0  0  0  0  0  0  0
   -2.9405   -1.2232    8.4362 Si  0  0  0  0  0  4  0  0  0  0  0  0
   -6.5380   -1.1346    5.0326 Si  0  0  0  0  0  4  0  0  0  0  0  0
   -3.8052    0.7663    9.0275 Si  0  0  0  0  0  4  0  0  0  0  0  0
   -7.9492   -0.6356    6.6819 Si  0  0  0  0  0  4  0  0  0  0  0  0
   -0.1284   -0.1891    8.7890 H   0  0  0  0  0  0  0  0  0  0  0  0
   -0.2067   -2.3667    7.8574 H   0  0  0  0  0  0  0  0  0  0  0  0
   -2.9821   -2.0676    9.6542 H   0  0  0  0  0  0  0  0  0  0  0  0
   -3.7853   -1.8746    7.4418 H   0  0  0  0  0  0  0  0  0  0  0  0
   -8.0158   -1.8107    7.5760 H   0  0  0  0  0  0  0  0  0  0  0  0
   -9.2732   -0.3993    6.0786 H   0  0  0  0  0  0  0  0  0  0  0  0
   -5.9493    0.4505    9.5581 Si  0  0  0  0  0  4  0  0  0  0  0  0
   -6.2520    1.2716   10.7493 H   0  0  0  0  0  0  0  0  0  0  0  0
   -6.1999   -0.9713    9.8662 H   0  0  0  0  0  0  0  0  0  0  0  0
   -7.2699    1.0987    7.8738 Si  0  0  0  0  0  4  0  0  0  0  0  0
   -8.4779    1.7412    8.4649 H   0  0  0  0  0  0  0  0  0  0  0  0
   -6.6008    2.1187    7.0781 H   0  0  0  0  0  0  0  0  0  0  0  0
   -3.6529    1.7555    7.9778 H   0  0  0  0  0  0  0  0  0  0  0  0
   -3.0683    1.2618   10.2123 H   0  0  0  0  0  0  0  0  0  0  0  0
   -7.1657   -2.1980    4.2189 H   0  0  0  0  0  0  0  0  0  0  0  0
   -5.2591   -1.6461    5.5355 H   0  0  0  0  0  0  0  0  0  0  0  0
   -5.7957    0.1216    2.3610 H   0  0  0  0  0  0  0  0  0  0  0  0
   -7.3712    1.4389    3.5554 H   0  0  0  0  0  0  0  0  0  0  0  0
    0.8262   -0.1298    5.4579 H   0  0  0  0  0  0  0  0  0  0  0  0
   -1.0336    1.3003    5.8842 H   0  0  0  0  0  0  0  0  0  0  0  0
  1  2  1  0
  1  5  1  0
  2  3  1  0
  2  4  1  0
  2 11  1  0
  5  6  1  0
  5  7  1  0
  5  8  1  0
  8  9  1  0
  8 36  1  0
  8 37  1  0
  9 14  1  0
  9 18  1  0
  9 19  1  0
 10 11  1  0
 10 15  1  0
 10 34  1  0
 10 35  1  0
 11 12  1  0
 11 13  1  0
 14 16  1  0
 14 20  1  0
 14 21  1  0
 15 17  1  0
 15 32  1  0
 15 33  1  0
 16 24  1  0
 16 30  1  0
 16 31  1  0
 17 22  1  0
 17 23  1  0
 17 27  1  0
 24 25  1  0
 24 26  1  0
 24 27  1  0
 27 28  1  0
 27 29  1  0
M  CHG  1   1   1
M  RAD  1   1   2
M  END
$$$$

     RDKit          3D

 37 37  0  0  0  0  0  0  0  0999 V2000
   -1.9855    0.0671    2.5037 S   0  0  0  0  0  2  0  0  0  0  0  0
   -2.7653    1.8380    3.3600 Si  0  0  0  0  0  4  0  0  0  0  0  0
   -1.6856    2.8055    3.5743 H   0  0  0  0  0  0  0  0  0  0  0  0
   -3.6879    2.4596    2.3683 H   0  0  0  0  0  0  0  0  0  0  0  0
   -2.1650   -1.6303    3.7794 Si  0  0  0  0  0  4  0  0  0  0  0  0
   -1.7008   -2.8128    3.0175 H   0  0  0  0  0  0  0  0  0  0  0  0
   -3.5609   -1.9078    4.1571 H   0  0  0  0  0  0  0  0  0  0  0  0
   -0.8567   -1.4646    5.5804 Si  0  0  0  0  0  4  0  0  0  0  0  0
   -1.9277   -2.1451    7.3958 Si  0  0  0  0  0  4  0  0  0  0  0  0
   -4.6700    3.3632    6.0595 Si  0  0  0  0  0  4  0  0  0  0  0  0
   -3.9427    1.4643    5.2051 Si  0  0  0  0  0  4  0  0  0  0  0  0
   -5.1339    0.6595    4.8113 H   0  0  0  0  0  0  0  0  0  0  0  0
   -3.2058    0.6506    6.1755 H   0  0  0  0  0  0  0  0  0  0  0  0
   -1.4952   -0.7969    9.1406 Si  0  0  0  0  0  4  0  0  0  0  0  0
   -3.2776    5.0513    5.7486 Si  0  0  0  0  0  4  0  0  0  0  0  0
   -0.7231    1.1218    8.3727 Si  0  0  0  0  0  4  0  0  0  0  0  0
   -1.1837    4.5129    6.2628 Si  0  0  0  0  0  4  0  0  0  0  0  0
   -1.5552   -3.5390    7.7551 H   0  0  0  0  0  0  0  0  0  0  0  0
   -3.3986   -2.1623    7.2062 H   0  0  0  0  0  0  0  0  0  0  0  0
   -2.6575   -0.6557   10.0098 H   0  0  0  0  0  0  0  0  0  0  0  0
   -0.4104   -1.4521    9.9184 H   0  0  0  0  0  0  0  0  0  0  0  0
   -0.8285    3.1725    5.8177 H   0  0  0  0  0  0  0  0  0  0  0  0
   -0.2887    5.4825    5.5837 H   0  0  0  0  0  0  0  0  0  0  0  0
   -1.5888    2.8730    9.4999 Si  0  0  0  0  0  4  0  0  0  0  0  0
   -3.0524    2.7827    9.3315 H   0  0  0  0  0  0  0  0  0  0  0  0
   -1.1859    2.8401   10.8921 H   0  0  0  0  0  0  0  0  0  0  0  0
   -0.7965    4.7106    8.4568 Si  0  0  0  0  0  4  0  0  0  0  0  0
    0.6809    4.6608    8.6303 H   0  0  0  0  0  0  0  0  0  0  0  0
   -1.3756    5.9220    9.0057 H   0  0  0  0  0  0  0  0  0  0  0  0
    0.7493    1.1948    8.4939 H   0  0  0  0  0  0  0  0  0  0  0  0
   -1.0496    1.3557    6.9590 H   0  0  0  0  0  0  0  0  0  0  0  0
   -3.3420    5.5933    4.3856 H   0  0  0  0  0  0  0  0  0  0  0  0
   -3.6861    6.1568    6.6542 H   0  0  0  0  0  0  0  0  0  0  0  0
   -4.8409    3.1808    7.5264 H   0  0  0  0  0  0  0  0  0  0  0  0
   -5.9803    3.7170    5.5072 H   0  0  0  0  0  0  0  0  0  0  0  0
   -0.3928   -0.0827    5.6692 H   0  0  0  0  0  0  0  0  0  0  0  0
    0.3605   -2.3094    5.4360 H   0  0  0  0  0  0  0  0  0  0  0  0
  1  2  1  0
  1  5  1  0
  2  3  1  0
  2  4  1  0
  2 11  1  0
  5  6  1  0
  5  7  1  0
  5  8  1  0
  8  9  1  0
  8 36  1  0
  8 37  1  0
  9 14  1  0
  9 18  1  0
  9 19  1  0
 10 11  1  0
 10 15  1  0
 10 34  1  0
 10 35  1  0
 11 12  1  0
 11 13  1  0
 14 16  1  0
 14 20  1  0
 14 21  1  0
 15 17  1  0
 15 32  1  0
 15 33  1  0
 16 24  1  0
 16 30  1  0
 16 31  1  0
 17 22  1  0
 17 23  1  0
 17 27  1  0
 24 25  1  0
 24 26  1  0
 24 27  1  0
 27 28  1  0
 27 29  1  0
M  CHG  1   1   1
M  RAD  1   1   2
M  END
$$$$
