
     RDKit          3D

 37 37  0  0  0  0  0  0  0  0999 V2000
    0.7768    1.0181   -2.6064 S   0  0  0  0  0  2  0  0  0  0  0  0
    2.8132    0.9523   -3.2524 Si  0  0  0  0  0  4  0  0  0  0  0  0
    3.5087   -0.0479   -2.4066 H   0  0  0  0  0  0  0  0  0  0  0  0
    3.4794    2.2489   -3.1513 H   0  0  0  0  0  0  0  0  0  0  0  0
   -0.3630    2.4807   -3.6281 Si  0  0  0  0  0  4  0  0  0  0  0  0
    0.2934    3.7802   -3.7261 H   0  0  0  0  0  0  0  0  0  0  0  0
   -1.6220    2.6976   -2.8623 H   0  0  0  0  0  0  0  0  0  0  0  0
   -0.9168    1.7640   -5.6508 Si  0  0  0  0  0  4  0  0  0  0  0  0
   -1.9724    3.2919   -6.8467 Si  0  0  0  0  0  4  0  0  0  0  0  0
    1.7062   -1.5786   -5.6794 Si  0  0  0  0  0  4  0  0  0  0  0  0
    2.9701    0.2010   -5.3649 Si  0  0  0  0  0  4  0  0  0  0  0  0
    4.3892   -0.2019   -5.5816 H   0  0  0  0  0  0  0  0  0  0  0  0
    2.6976    1.2946   -6.2724 H   0  0  0  0  0  0  0  0  0  0  0  0
   -2.8692    2.2952   -8.6526 Si  0  0  0  0  0  4  0  0  0  0  0  0
    2.5973   -2.9281   -7.1992 Si  0  0  0  0  0  4  0  0  0  0  0  0
   -2.0794    0.2042   -8.8279 Si  0  0  0  0  0  4  0  0  0  0  0  0
    1.9858   -2.4124   -9.2614 Si  0  0  0  0  0  4  0  0  0  0  0  0
   -3.0220    3.9521   -6.0594 H   0  0  0  0  0  0  0  0  0  0  0  0
   -1.0255    4.2996   -7.3171 H   0  0  0  0  0  0  0  0  0  0  0  0
   -4.3346    2.2022   -8.5186 H   0  0  0  0  0  0  0  0  0  0  0  0
   -2.5732    3.0733   -9.8639 H   0  0  0  0  0  0  0  0  0  0  0  0
    0.8326   -3.2321   -9.6410 H   0  0  0  0  0  0  0  0  0  0  0  0
    3.1122   -2.7491  -10.1668 H   0  0  0  0  0  0  0  0  0  0  0  0
   -0.4925    0.0761  -10.3892 Si  0  0  0  0  0  4  0  0  0  0  0  0
   -0.8213   -0.9563  -11.3969 H   0  0  0  0  0  0  0  0  0  0  0  0
   -0.4681    1.3780  -11.0939 H   0  0  0  0  0  0  0  0  0  0  0  0
    1.5193   -0.2512   -9.4965 Si  0  0  0  0  0  4  0  0  0  0  0  0
    2.5496    0.4568  -10.2821 H   0  0  0  0  0  0  0  0  0  0  0  0
    1.5357    0.3571   -8.1514 H   0  0  0  0  0  0  0  0  0  0  0  0
   -1.4766   -0.1502   -7.5324 H   0  0  0  0  0  0  0  0  0  0  0  0
   -3.1711   -0.7360   -9.1524 H   0  0  0  0  0  0  0  0  0  0  0  0
    4.0539   -2.9170   -7.0230 H   0  0  0  0  0  0  0  0  0  0  0  0
    2.1383   -4.3040   -6.8998 H   0  0  0  0  0  0  0  0  0  0  0  0
    0.3275   -1.2686   -6.0351 H   0  0  0  0  0  0  0  0  0  0  0  0
    1.6507   -2.3367   -4.3959 H   0  0  0  0  0  0  0  0  0  0  0  0
   -1.7674    0.5473   -5.5504 H   0  0  0  0  0  0  0  0  0  0  0  0
    0.2999    1.3587   -6.3540 H   0  0  0  0  0  0  0  0  0  0  0  0
  1  2  1  0
  1  5  1  0
  2  3  1  0
  2  4  1  0
  2 11  1  0
  5  6  1  0
  5  7  1  0
  5  8  1  0
  8  9  1  0
  8 36  1  0
  8 37  1  0
  9 14  1  0
  9 18  1  0
  9 19  1  0
 10 11  1  0
 10 15  1  0
 10 34  1  0
 10 35  1  0
 11 12  1  0
 11 13  1  0
 14 16  1  0
 14 20  1  0
 14 21  1  0
 15 17  1  0
 15 32  1  0
 15 33  1  0
 16 24  1  0
 16 30  1  0
 16 31  1  0
 17 22  1  0
 17 23  1  0
 17 27  1  0
 24 25  1  0
 24 26  1  0
 24 27  1  0
 27 28  1  0
 27 29  1  0
M  CHG  1   1   1
M  RAD  1   1   2
M  END
$$$$

     RDKit          3D

 37 37  0  0  0  0  0  0  0  0999 V2000
    0.7768    1.0181   -2.6064 S   0  0  0  0  0  2  0  0  0  0  0  0
    2.6846    1.1787   -3.6016 Si  0  0  0  0  0  4  0  0  0  0  0  0
    3.7316    1.1389   -2.5528 H   0  0  0  0  0  0  0  0  0  0  0  0
    2.7569    2.4728   -4.2609 H   0  0  0  0  0  0  0  0  0  0  0  0
   -0.7707    1.1415   -4.0788 Si  0  0  0  0  0  4  0  0  0  0  0  0
   -2.0908    0.9245   -3.5232 H   0  0  0  0  0  0  0  0  0  0  0  0
   -0.4707    0.1242   -5.1135 H   0  0  0  0  0  0  0  0  0  0  0  0
   -0.5991    3.1532   -5.0725 Si  0  0  0  0  0  4  0  0  0  0  0  0
    1.0003    3.1051   -6.6318 Si  0  0  0  0  0  4  0  0  0  0  0  0
    4.1704    0.0738   -6.7919 Si  0  0  0  0  0  4  0  0  0  0  0  0
    2.9666   -0.5070   -5.0075 Si  0  0  0  0  0  4  0  0  0  0  0  0
    3.6346   -1.6099   -4.2843 H   0  0  0  0  0  0  0  0  0  0  0  0
    1.6324   -0.9682   -5.4435 H   0  0  0  0  0  0  0  0  0  0  0  0
    0.2099    3.9513   -8.5652 Si  0  0  0  0  0  4  0  0  0  0  0  0
    3.4424   -1.1478   -8.5314 Si  0  0  0  0  0  4  0  0  0  0  0  0
   -1.7162    2.9522   -9.0025 Si  0  0  0  0  0  4  0  0  0  0  0  0
    1.2378   -1.0813   -8.7081 Si  0  0  0  0  0  4  0  0  0  0  0  0
    2.2100    3.7977   -6.2058 H   0  0  0  0  0  0  0  0  0  0  0  0
    1.2928    1.6847   -6.9090 H   0  0  0  0  0  0  0  0  0  0  0  0
    1.2019    3.7951   -9.6063 H   0  0  0  0  0  0  0  0  0  0  0  0
   -0.0265    5.3769   -8.3322 H   0  0  0  0  0  0  0  0  0  0  0  0
    0.6348   -0.6227   -7.4462 H   0  0  0  0  0  0  0  0  0  0  0  0
    0.6885   -2.4249   -9.0029 H   0  0  0  0  0  0  0  0  0  0  0  0
   -1.5022    0.9992   -9.9795 Si  0  0  0  0  0  4  0  0  0  0  0  0
   -2.1828   -0.0676   -9.1934 H   0  0  0  0  0  0  0  0  0  0  0  0
   -2.2243    1.0329  -11.2827 H   0  0  0  0  0  0  0  0  0  0  0  0
    0.5882    0.3774  -10.3019 Si  0  0  0  0  0  4  0  0  0  0  0  0
    1.5201    1.4803  -10.4239 H   0  0  0  0  0  0  0  0  0  0  0  0
    0.6471   -0.3835  -11.5831 H   0  0  0  0  0  0  0  0  0  0  0  0
   -2.5491    3.8900   -9.7862 H   0  0  0  0  0  0  0  0  0  0  0  0
   -2.4315    2.7729   -7.7065 H   0  0  0  0  0  0  0  0  0  0  0  0
    3.8631   -2.5472   -8.2546 H   0  0  0  0  0  0  0  0  0  0  0  0
    4.0655   -0.6853   -9.7634 H   0  0  0  0  0  0  0  0  0  0  0  0
    5.5802   -0.1759   -6.5720 H   0  0  0  0  0  0  0  0  0  0  0  0
    3.9325    1.5124   -7.0883 H   0  0  0  0  0  0  0  0  0  0  0  0
   -0.2755    4.1534   -4.0339 H   0  0  0  0  0  0  0  0  0  0  0  0
   -1.9001    3.4906   -5.6739 H   0  0  0  0  0  0  0  0  0  0  0  0
  1  2  1  0
  1  5  1  0
  2  3  1  0
  2  4  1  0
  2 11  1  0
  5  6  1  0
  5  7  1  0
  5  8  1  0
  8  9  1  0
  8 36  1  0
  8 37  1  0
  9 14  1  0
  9 18  1  0
  9 19  1  0
 10 11  1  0
 10 15  1  0
 10 34  1  0
 10 35  1  0
 11 12  1  0
 11 13  1  0
 14 16  1  0
 14 20  1  0
 14 21  1  0
 15 17  1  0
 15 32  1  0
 15 33  1  0
 16 24  1  0
 16 30  1  0
 16 31  1  0
 17 22  1  0
 17 23  1  0
 17 27  1  0
 24 25  1  0
 24 26  1  0
 24 27  1  0
 27 28  1  0
 27 29  1  0
M  CHG  1   1   1
M  RAD  1   1   2
M  END
$$$$

     RDKit          3D

 37 37  0  0  0  0  0  0  0  0999 V2000
    0.7768    1.0181   -2.6064 S   0  0  0  0  0  2  0  0  0  0  0  0
    2.3092    0.2799   -3.9340 Si  0  0  0  0  0  4  0  0  0  0  0  0
    3.0225   -0.8062   -3.2204 H   0  0  0  0  0  0  0  0  0  0  0  0
    3.2590    1.3512   -4.1881 H   0  0  0  0  0  0  0  0  0  0  0  0
   -0.2357    2.6378   -3.5706 Si  0  0  0  0  0  4  0  0  0  0  0  0
   -1.3646    3.1268   -2.8059 H   0  0  0  0  0  0  0  0  0  0  0  0
   -0.6813    2.1468   -4.8957 H   0  0  0  0  0  0  0  0  0  0  0  0
    1.2835    4.2538   -3.9504 Si  0  0  0  0  0  4  0  0  0  0  0  0
    2.4623    3.7822   -5.7889 Si  0  0  0  0  0  4  0  0  0  0  0  0
    2.7278   -0.2230   -7.5642 Si  0  0  0  0  0  4  0  0  0  0  0  0
    1.4053   -0.5114   -5.7927 Si  0  0  0  0  0  4  0  0  0  0  0  0
    1.1263   -1.9502   -5.5990 H   0  0  0  0  0  0  0  0  0  0  0  0
    0.1251    0.1920   -6.0151 H   0  0  0  0  0  0  0  0  0  0  0  0
    2.5079    5.5774   -7.1504 Si  0  0  0  0  0  4  0  0  0  0  0  0
    1.4078    0.0673   -9.3592 Si  0  0  0  0  0  4  0  0  0  0  0  0
    0.4284    6.2967   -7.3897 Si  0  0  0  0  0  4  0  0  0  0  0  0
   -0.1578    1.5848   -8.9826 Si  0  0  0  0  0  4  0  0  0  0  0  0
    3.8089    3.3179   -5.4793 H   0  0  0  0  0  0  0  0  0  0  0  0
    1.7177    2.7421   -6.5262 H   0  0  0  0  0  0  0  0  0  0  0  0
    3.1551    5.2274   -8.3958 H   0  0  0  0  0  0  0  0  0  0  0  0
    3.2983    6.6017   -6.4657 H   0  0  0  0  0  0  0  0  0  0  0  0
   -0.3198    1.8081   -7.5369 H   0  0  0  0  0  0  0  0  0  0  0  0
   -1.4665    1.1403   -9.5152 H   0  0  0  0  0  0  0  0  0  0  0  0
   -0.7181    5.2089   -8.9118 Si  0  0  0  0  0  4  0  0  0  0  0  0
   -1.9623    4.6316   -8.3306 H   0  0  0  0  0  0  0  0  0  0  0  0
   -1.1911    6.1783   -9.9402 H   0  0  0  0  0  0  0  0  0  0  0  0
    0.3989    3.5763   -9.8851 Si  0  0  0  0  0  4  0  0  0  0  0  0
    1.8348    3.7700   -9.8994 H   0  0  0  0  0  0  0  0  0  0  0  0
   -0.0428    3.5039  -11.3077 H   0  0  0  0  0  0  0  0  0  0  0  0
    0.4758    7.7521   -7.6484 H   0  0  0  0  0  0  0  0  0  0  0  0
   -0.2507    6.1491   -6.0705 H   0  0  0  0  0  0  0  0  0  0  0  0
    0.7573   -1.2469   -9.6070 H   0  0  0  0  0  0  0  0  0  0  0  0
    2.2103    0.4406  -10.5153 H   0  0  0  0  0  0  0  0  0  0  0  0
    3.5853   -1.3729   -7.7658 H   0  0  0  0  0  0  0  0  0  0  0  0
    3.5393    1.0083   -7.3665 H   0  0  0  0  0  0  0  0  0  0  0  0
    2.1743    4.3338   -2.7742 H   0  0  0  0  0  0  0  0  0  0  0  0
    0.5750    5.5356   -4.1031 H   0  0  0  0  0  0  0  0  0  0  0  0
  1  2  1  0
  1  5  1  0
  2  3  1  0
  2  4  1  0
  2 11  1  0
  5  6  1  0
  5  7  1  0
  5  8  1  0
  8  9  1  0
  8 36  1  0
  8 37  1  0
  9 14  1  0
  9 18  1  0
  9 19  1  0
 10 11  1  0
 10 15  1  0
 10 34  1  0
 10 35  1  0
 11 12  1  0
 11 13  1  0
 14 16  1  0
 14 20  1  0
 14 21  1  0
 15 17  1  0
 15 32  1  0
 15 33  1  0
 16 24  1  0
 16 30  1  0
 16 31  1  0
 17 22  1  0
 17 23  1  0
 17 27  1  0
 24 25  1  0
 24 26  1  0
 24 27  1  0
 27 28  1  0
 27 29  1  0
M  CHG  1   1   1
M  RAD  1   1   2
M  END
$$$$

     RDKit          3D

 37 37  0  0  0  0  0  0  0  0999 V2000
    0.7768    1.0181   -2.6064 S   0  0  0  0  0  2  0  0  0  0  0  0
    1.7478    2.4777   -3.8643 Si  0  0  0  0  0  4  0  0  0  0  0  0
    1.6439    3.7876   -3.1779 H   0  0  0  0  0  0  0  0  0  0  0  0
    1.0184    2.5680   -5.1191 H   0  0  0  0  0  0  0  0  0  0  0  0
    0.8415   -0.8797   -3.5923 Si  0  0  0  0  0  4  0  0  0  0  0  0
    0.3182   -1.9540   -2.7735 H   0  0  0  0  0  0  0  0  0  0  0  0
    2.2567   -1.1400   -3.9455 H   0  0  0  0  0  0  0  0  0  0  0  0
   -0.2872   -0.6743   -5.5282 Si  0  0  0  0  0  4  0  0  0  0  0  0
    1.0139    0.2727   -7.0782 Si  0  0  0  0  0  4  0  0  0  0  0  0
    4.6350    2.5759   -6.1581 Si  0  0  0  0  0  4  0  0  0  0  0  0
    3.8774    1.9509   -4.1566 Si  0  0  0  0  0  4  0  0  0  0  0  0
    4.6686    2.6018   -3.0908 H   0  0  0  0  0  0  0  0  0  0  0  0
    4.0105    0.4862   -4.0159 H   0  0  0  0  0  0  0  0  0  0  0  0
    0.9546   -0.9438   -8.9744 Si  0  0  0  0  0  4  0  0  0  0  0  0
    6.2006    1.0922   -6.7871 Si  0  0  0  0  0  4  0  0  0  0  0  0
    1.3305   -3.0569   -8.4333 Si  0  0  0  0  0  4  0  0  0  0  0  0
    5.4890   -0.9903   -6.5576 Si  0  0  0  0  0  4  0  0  0  0  0  0
    0.6540    1.6627   -7.3293 H   0  0  0  0  0  0  0  0  0  0  0  0
    2.4046    0.1826   -6.5907 H   0  0  0  0  0  0  0  0  0  0  0  0
    1.8995   -0.4050   -9.9280 H   0  0  0  0  0  0  0  0  0  0  0  0
   -0.4010   -0.8158   -9.5114 H   0  0  0  0  0  0  0  0  0  0  0  0
    4.3242   -1.0391   -5.6592 H   0  0  0  0  0  0  0  0  0  0  0  0
    6.5428   -1.8492   -5.9694 H   0  0  0  0  0  0  0  0  0  0  0  0
    3.4567   -3.5536   -8.2165 Si  0  0  0  0  0  4  0  0  0  0  0  0
    3.7370   -4.1205   -6.8677 H   0  0  0  0  0  0  0  0  0  0  0  0
    3.7931   -4.6496   -9.1688 H   0  0  0  0  0  0  0  0  0  0  0  0
    4.8172   -1.8479   -8.5332 Si  0  0  0  0  0  4  0  0  0  0  0  0
    4.2829   -0.8204   -9.4040 H   0  0  0  0  0  0  0  0  0  0  0  0
    6.0562   -2.3649   -9.1825 H   0  0  0  0  0  0  0  0  0  0  0  0
    0.6474   -3.9113   -9.4286 H   0  0  0  0  0  0  0  0  0  0  0  0
    0.6349   -3.3183   -7.1405 H   0  0  0  0  0  0  0  0  0  0  0  0
    7.3595    1.3096   -5.8807 H   0  0  0  0  0  0  0  0  0  0  0  0
    6.6036    1.3431   -8.1635 H   0  0  0  0  0  0  0  0  0  0  0  0
    5.2101    3.9043   -6.1050 H   0  0  0  0  0  0  0  0  0  0  0  0
    3.5144    2.5281   -7.1358 H   0  0  0  0  0  0  0  0  0  0  0  0
   -1.4811    0.1600   -5.2787 H   0  0  0  0  0  0  0  0  0  0  0  0
   -0.7202   -2.0131   -5.9618 H   0  0  0  0  0  0  0  0  0  0  0  0
  1  2  1  0
  1  5  1  0
  2  3  1  0
  2  4  1  0
  2 11  1  0
  5  6  1  0
  5  7  1  0
  5  8  1  0
  8  9  1  0
  8 36  1  0
  8 37  1  0
  9 14  1  0
  9 18  1  0
  9 19  1  0
 10 11  1  0
 10 15  1  0
 10 34  1  0
 10 35  1  0
 11 12  1  0
 11 13  1  0
 14 16  1  0
 14 20  1  0
 14 21  1  0
 15 17  1  0
 15 32  1  0
 15 33  1  0
 16 24  1  0
 16 30  1  0
 16 31  1  0
 17 22  1  0
 17 23  1  0
 17 27  1  0
 24 25  1  0
 24 26  1  0
 24 27  1  0
 27 28  1  0
 27 29  1  0
M  CHG  1   1   1
M  RAD  1   1   2
M  END
$$$$

     RDKit          3D

 37 37  0  0  0  0  0  0  0  0999 V2000
    0.7768    1.0181   -2.6064 S   0  0  0  0  0  2  0  0  0  0  0  0
    2.4292    2.0140   -3.5799 Si  0  0  0  0  0  4  0  0  0  0  0  0
    3.4266    2.2888   -2.5334 H   0  0  0  0  0  0  0  0  0  0  0  0
    3.0307    1.0571   -4.5201 H   0  0  0  0  0  0  0  0  0  0  0  0
    0.8641   -1.1105   -3.0159 Si  0  0  0  0  0  4  0  0  0  0  0  0
    1.3862   -1.8475   -1.8834 H   0  0  0  0  0  0  0  0  0  0  0  0
   -0.5201   -1.5213   -3.3565 H   0  0  0  0  0  0  0  0  0  0  0  0
    2.0987   -1.3498   -4.8558 Si  0  0  0  0  0  4  0  0  0  0  0  0
    2.1374   -3.4340   -5.5845 Si  0  0  0  0  0  4  0  0  0  0  0  0
    1.6463    3.5095   -6.8588 Si  0  0  0  0  0  4  0  0  0  0  0  0
    1.7831    3.8133   -4.6705 Si  0  0  0  0  0  4  0  0  0  0  0  0
    2.7457    4.8963   -4.4150 H   0  0  0  0  0  0  0  0  0  0  0  0
    0.4730    4.2761   -4.1803 H   0  0  0  0  0  0  0  0  0  0  0  0
    3.1353   -3.4184   -7.6094 Si  0  0  0  0  0  4  0  0  0  0  0  0
    3.6016    3.5987   -7.8727 Si  0  0  0  0  0  4  0  0  0  0  0  0
    2.5885   -1.4925   -8.5889 Si  0  0  0  0  0  4  0  0  0  0  0  0
    4.7391    1.6922   -7.7355 Si  0  0  0  0  0  4  0  0  0  0  0  0
    0.8214   -4.0237   -5.7565 H   0  0  0  0  0  0  0  0  0  0  0  0
    2.9982   -4.2563   -4.7035 H   0  0  0  0  0  0  0  0  0  0  0  0
    2.7109   -4.5816   -8.4034 H   0  0  0  0  0  0  0  0  0  0  0  0
    4.5919   -3.4792   -7.3873 H   0  0  0  0  0  0  0  0  0  0  0  0
    4.0904    0.7225   -6.8541 H   0  0  0  0  0  0  0  0  0  0  0  0
    6.0474    2.0210   -7.0969 H   0  0  0  0  0  0  0  0  0  0  0  0
    3.9959   -0.9468  -10.2089 Si  0  0  0  0  0  4  0  0  0  0  0  0
    4.8328   -2.1127  -10.5762 H   0  0  0  0  0  0  0  0  0  0  0  0
    3.1844   -0.6491  -11.4240 H   0  0  0  0  0  0  0  0  0  0  0  0
    5.1945    0.8475   -9.7437 Si  0  0  0  0  0  4  0  0  0  0  0  0
    4.9953    1.9223  -10.7525 H   0  0  0  0  0  0  0  0  0  0  0  0
    6.6335    0.4753   -9.8553 H   0  0  0  0  0  0  0  0  0  0  0  0
    2.5744   -0.4169   -7.6059 H   0  0  0  0  0  0  0  0  0  0  0  0
    1.1953   -1.6382   -9.0843 H   0  0  0  0  0  0  0  0  0  0  0  0
    4.3588    4.7445   -7.3725 H   0  0  0  0  0  0  0  0  0  0  0  0
    3.3584    3.8579   -9.3204 H   0  0  0  0  0  0  0  0  0  0  0  0
    0.8066    4.6182   -7.3994 H   0  0  0  0  0  0  0  0  0  0  0  0
    0.9161    2.2662   -7.2005 H   0  0  0  0  0  0  0  0  0  0  0  0
    1.4829   -0.4703   -5.8832 H   0  0  0  0  0  0  0  0  0  0  0  0
    3.4692   -0.9351   -4.5414 H   0  0  0  0  0  0  0  0  0  0  0  0
  1  2  1  0
  1  5  1  0
  2  3  1  0
  2  4  1  0
  2 11  1  0
  5  6  1  0
  5  7  1  0
  5  8  1  0
  8  9  1  0
  8 36  1  0
  8 37  1  0
  9 14  1  0
  9 18  1  0
  9 19  1  0
 10 11  1  0
 10 15  1  0
 10 34  1  0
 10 35  1  0
 11 12  1  0
 11 13  1  0
 14 16  1  0
 14 20  1  0
 14 21  1  0
 15 17  1  0
 15 32  1  0
 15 33  1  0
 16 24  1  0
 16 30  1  0
 16 31  1  0
 17 22  1  0
 17 23  1  0
 17 27  1  0
 24 25  1  0
 24 26  1  0
 24 27  1  0
 27 28  1  0
 27 29  1  0
M  CHG  1   1   1
M  RAD  1   1   2
M  END
$$$$

     RDKit          3D

 37 37  0  0  0  0  0  0  0  0999 V2000
    0.7768    1.0181   -2.6064 S   0  0  0  0  0  2  0  0  0  0  0  0
    0.3573    3.0543   -3.0849 Si  0  0  0  0  0  4  0  0  0  0  0  0
   -0.4965    3.7035   -2.0740 H   0  0  0  0  0  0  0  0  0  0  0  0
    1.6178    3.8384   -3.1414 H   0  0  0  0  0  0  0  0  0  0  0  0
    2.8259    0.6227   -3.1628 Si  0  0  0  0  0  4  0  0  0  0  0  0
    3.4013   -0.2012   -2.0897 H   0  0  0  0  0  0  0  0  0  0  0  0
    3.5888    1.8884   -3.2579 H   0  0  0  0  0  0  0  0  0  0  0  0
    2.9031   -0.4387   -5.1078 Si  0  0  0  0  0  4  0  0  0  0  0  0
    3.4689    0.9902   -6.7574 Si  0  0  0  0  0  4  0  0  0  0  0  0
   -1.1975    1.2303   -5.8890 Si  0  0  0  0  0  4  0  0  0  0  0  0
   -0.6358    3.2210   -5.0503 Si  0  0  0  0  0  4  0  0  0  0  0  0
   -1.8842    4.0226   -4.9746 H   0  0  0  0  0  0  0  0  0  0  0  0
    0.2322    3.8828   -6.0446 H   0  0  0  0  0  0  0  0  0  0  0  0
    3.1220    0.0948   -8.7507 Si  0  0  0  0  0  4  0  0  0  0  0  0
   -2.4426    1.6078   -7.7284 Si  0  0  0  0  0  4  0  0  0  0  0  0
    1.3556    0.9196   -9.7800 Si  0  0  0  0  0  4  0  0  0  0  0  0
   -2.1858    3.6953   -8.4045 Si  0  0  0  0  0  4  0  0  0  0  0  0
    2.8329    2.2839   -6.5818 H   0  0  0  0  0  0  0  0  0  0  0  0
    4.9373    1.2059   -6.6124 H   0  0  0  0  0  0  0  0  0  0  0  0
    4.2939    0.2495   -9.6248 H   0  0  0  0  0  0  0  0  0  0  0  0
    2.8974   -1.3657   -8.5537 H   0  0  0  0  0  0  0  0  0  0  0  0
   -3.4519    4.3341   -8.7574 H   0  0  0  0  0  0  0  0  0  0  0  0
   -1.6050    4.4779   -7.2854 H   0  0  0  0  0  0  0  0  0  0  0  0
    1.2337    3.1283   -9.6670 Si  0  0  0  0  0  4  0  0  0  0  0  0
    1.6652    3.6700   -8.3901 H   0  0  0  0  0  0  0  0  0  0  0  0
    2.1473    3.6790  -10.7085 H   0  0  0  0  0  0  0  0  0  0  0  0
   -0.8092    3.8679  -10.1369 Si  0  0  0  0  0  4  0  0  0  0  0  0
   -1.3658    3.1880  -11.3235 H   0  0  0  0  0  0  0  0  0  0  0  0
   -0.7054    5.2964  -10.4890 H   0  0  0  0  0  0  0  0  0  0  0  0
    1.4514    0.5515  -11.2216 H   0  0  0  0  0  0  0  0  0  0  0  0
    0.1538    0.2851   -9.2577 H   0  0  0  0  0  0  0  0  0  0  0  0
   -2.1701    0.6302   -8.7677 H   0  0  0  0  0  0  0  0  0  0  0  0
   -3.8579    1.4047   -7.3087 H   0  0  0  0  0  0  0  0  0  0  0  0
   -1.9503    0.4367   -4.9036 H   0  0  0  0  0  0  0  0  0  0  0  0
   -0.0288    0.4700   -6.3200 H   0  0  0  0  0  0  0  0  0  0  0  0
    3.9142   -1.4950   -5.0277 H   0  0  0  0  0  0  0  0  0  0  0  0
    1.5989   -1.0513   -5.3808 H   0  0  0  0  0  0  0  0  0  0  0  0
  1  2  1  0
  1  5  1  0
  2  3  1  0
  2  4  1  0
  2 11  1  0
  5  6  1  0
  5  7  1  0
  5  8  1  0
  8  9  1  0
  8 36  1  0
  8 37  1  0
  9 14  1  0
  9 18  1  0
  9 19  1  0
 10 11  1  0
 10 15  1  0
 10 34  1  0
 10 35  1  0
 11 12  1  0
 11 13  1  0
 14 16  1  0
 14 20  1  0
 14 21  1  0
 15 17  1  0
 15 32  1  0
 15 33  1  0
 16 24  1  0
 16 30  1  0
 16 31  1  0
 17 22  1  0
 17 23  1  0
 17 27  1  0
 24 25  1  0
 24 26  1  0
 24 27  1  0
 27 28  1  0
 27 29  1  0
M  CHG  1   1   1
M  RAD  1   1   2
M  END
$$$$

     RDKit          3D

 37 37  0  0  0  0  0  0  0  0999 V2000
    0.7768    1.0181   -2.6064 S   0  0  0  0  0  2  0  0  0  0  0  0
    2.6369    0.7615   -3.6759 Si  0  0  0  0  0  4  0  0  0  0  0  0
    3.3857   -0.2878   -2.9663 H   0  0  0  0  0  0  0  0  0  0  0  0
    2.3111    0.2420   -5.0121 H   0  0  0  0  0  0  0  0  0  0  0  0
   -0.8262    0.0291   -3.6828 Si  0  0  0  0  0  4  0  0  0  0  0  0
   -1.1730   -1.2376   -3.0716 H   0  0  0  0  0  0  0  0  0  0  0  0
   -1.9674    0.9770   -3.6839 H   0  0  0  0  0  0  0  0  0  0  0  0
   -0.1360   -0.1804   -5.7915 Si  0  0  0  0  0  4  0  0  0  0  0  0
   -1.7109   -0.9692   -7.1235 Si  0  0  0  0  0  4  0  0  0  0  0  0
    3.5778    3.5651   -5.8794 Si  0  0  0  0  0  4  0  0  0  0  0  0
    3.7464    2.6526   -3.8699 Si  0  0  0  0  0  4  0  0  0  0  0  0
    5.1698    2.3997   -3.5966 H   0  0  0  0  0  0  0  0  0  0  0  0
    3.2828    3.6321   -2.8716 H   0  0  0  0  0  0  0  0  0  0  0  0
   -0.9494   -0.7913   -9.2413 Si  0  0  0  0  0  4  0  0  0  0  0  0
    4.9069    2.6340   -7.3713 Si  0  0  0  0  0  4  0  0  0  0  0  0
    0.3126    1.0438   -9.3265 Si  0  0  0  0  0  4  0  0  0  0  0  0
    4.0784    0.7514   -8.2180 Si  0  0  0  0  0  4  0  0  0  0  0  0
   -2.9642   -0.2389   -7.0528 H   0  0  0  0  0  0  0  0  0  0  0  0
   -1.9017   -2.4159   -6.8709 H   0  0  0  0  0  0  0  0  0  0  0  0
   -2.0715   -0.7342  -10.1906 H   0  0  0  0  0  0  0  0  0  0  0  0
   -0.1292   -1.9847   -9.5202 H   0  0  0  0  0  0  0  0  0  0  0  0
    2.8547    0.3297   -7.5378 H   0  0  0  0  0  0  0  0  0  0  0  0
    5.0875   -0.3160   -7.9531 H   0  0  0  0  0  0  0  0  0  0  0  0
    1.7135    1.0188  -11.0411 Si  0  0  0  0  0  4  0  0  0  0  0  0
    1.3245   -0.0355  -12.0065 H   0  0  0  0  0  0  0  0  0  0  0  0
    1.5427    2.3049  -11.7761 H   0  0  0  0  0  0  0  0  0  0  0  0
    3.8284    0.8705  -10.4264 Si  0  0  0  0  0  4  0  0  0  0  0  0
    4.6297    2.0223  -10.9202 H   0  0  0  0  0  0  0  0  0  0  0  0
    4.4150   -0.3239  -11.0978 H   0  0  0  0  0  0  0  0  0  0  0  0
    1.0859    1.1774   -8.0987 H   0  0  0  0  0  0  0  0  0  0  0  0
   -0.6132    2.2047   -9.3780 H   0  0  0  0  0  0  0  0  0  0  0  0
    6.2380    2.4552   -6.7946 H   0  0  0  0  0  0  0  0  0  0  0  0
    5.0670    3.5884   -8.5051 H   0  0  0  0  0  0  0  0  0  0  0  0
    3.9841    4.9943   -5.7427 H   0  0  0  0  0  0  0  0  0  0  0  0
    2.1747    3.6032   -6.3542 H   0  0  0  0  0  0  0  0  0  0  0  0
    0.2592    1.1821   -6.2336 H   0  0  0  0  0  0  0  0  0  0  0  0
    1.0017   -1.1046   -5.8082 H   0  0  0  0  0  0  0  0  0  0  0  0
  1  2  1  0
  1  5  1  0
  2  3  1  0
  2  4  1  0
  2 11  1  0
  5  6  1  0
  5  7  1  0
  5  8  1  0
  8  9  1  0
  8 36  1  0
  8 37  1  0
  9 14  1  0
  9 18  1  0
  9 19  1  0
 10 11  1  0
 10 15  1  0
 10 34  1  0
 10 35  1  0
 11 12  1  0
 11 13  1  0
 14 16  1  0
 14 20  1  0
 14 21  1  0
 15 17  1  0
 15 32  1  0
 15 33  1  0
 16 24  1  0
 16 30  1  0
 16 31  1  0
 17 22  1  0
 17 23  1  0
 17 27  1  0
 24 25  1  0
 24 26  1  0
 24 27  1  0
 27 28  1  0
 27 29  1  0
M  CHG  1   1   1
M  RAD  1   1   2
M  END
$$$$

     RDKit          3D

 37 37  0  0  0  0  0  0  0  0999 V2000
    0.7768    1.0181   -2.6064 S   0  0  0  0  0  2  0  0  0  0  0  0
    2.3384    0.3075   -3.9149 Si  0  0  0  0  0  4  0  0  0  0  0  0
    3.0816   -0.7444   -3.1808 H   0  0  0  0  0  0  0  0  0  0  0  0
    3.2557    1.4040   -4.1814 H   0  0  0  0  0  0  0  0  0  0  0  0
   -0.2807    2.5900   -3.6008 Si  0  0  0  0  0  4  0  0  0  0  0  0
   -1.4283    3.0554   -2.8494 H   0  0  0  0  0  0  0  0  0  0  0  0
   -0.7038    2.0647   -4.9201 H   0  0  0  0  0  0  0  0  0  0  0  0
    1.1892    4.2467   -3.9989 Si  0  0  0  0  0  4  0  0  0  0  0  0
    2.3919    3.7835   -5.8241 Si  0  0  0  0  0  4  0  0  0  0  0  0
    2.7915   -0.2387   -7.5347 Si  0  0  0  0  0  4  0  0  0  0  0  0
    1.4694   -0.5406   -5.7652 Si  0  0  0  0  0  4  0  0  0  0  0  0
    1.2345   -1.9842   -5.5501 H   0  0  0  0  0  0  0  0  0  0  0  0
    0.1691    0.1188   -6.0047 H   0  0  0  0  0  0  0  0  0  0  0  0
    2.3886    5.5578   -7.2135 Si  0  0  0  0  0  4  0  0  0  0  0  0
    1.4726   -0.0179   -9.3403 Si  0  0  0  0  0  4  0  0  0  0  0  0
    0.2888    6.2078   -7.4741 Si  0  0  0  0  0  4  0  0  0  0  0  0
   -0.1416    1.4556   -8.9951 Si  0  0  0  0  0  4  0  0  0  0  0  0
    3.7507    3.3665   -5.5007 H   0  0  0  0  0  0  0  0  0  0  0  0
    1.6840    2.7092   -6.5484 H   0  0  0  0  0  0  0  0  0  0  0  0
    3.0529    5.2088   -8.4501 H   0  0  0  0  0  0  0  0  0  0  0  0
    3.1429    6.6169   -6.5413 H   0  0  0  0  0  0  0  0  0  0  0  0
   -0.3180    1.6962   -7.5539 H   0  0  0  0  0  0  0  0  0  0  0  0
   -1.4329    0.9620   -9.5268 H   0  0  0  0  0  0  0  0  0  0  0  0
   -0.8151    5.0610   -8.9842 Si  0  0  0  0  0  4  0  0  0  0  0  0
   -2.0437    4.4542   -8.3999 H   0  0  0  0  0  0  0  0  0  0  0  0
   -1.3127    5.9990  -10.0300 H   0  0  0  0  0  0  0  0  0  0  0  0
    0.3574    3.4491   -9.9263 Si  0  0  0  0  0  4  0  0  0  0  0  0
    1.7866    3.6874   -9.9368 H   0  0  0  0  0  0  0  0  0  0  0  0
   -0.0743    3.3407  -11.3496 H   0  0  0  0  0  0  0  0  0  0  0  0
    0.2922    7.6598   -7.7554 H   0  0  0  0  0  0  0  0  0  0  0  0
   -0.3922    6.0597   -6.1559 H   0  0  0  0  0  0  0  0  0  0  0  0
    0.8648   -1.3556   -9.5704 H   0  0  0  0  0  0  0  0  0  0  0  0
    2.2691    0.3622  -10.4983 H   0  0  0  0  0  0  0  0  0  0  0  0
    3.6856   -1.3642   -7.7140 H   0  0  0  0  0  0  0  0  0  0  0  0
    3.5632    1.0204   -7.3526 H   0  0  0  0  0  0  0  0  0  0  0  0
    2.0710    4.3729   -2.8198 H   0  0  0  0  0  0  0  0  0  0  0  0
    0.4420    5.5031   -4.1751 H   0  0  0  0  0  0  0  0  0  0  0  0
  1  2  1  0
  1  5  1  0
  2  3  1  0
  2  4  1  0
  2 11  1  0
  5  6  1  0
  5  7  1  0
  5  8  1  0
  8  9  1  0
  8 36  1  0
  8 37  1  0
  9 14  1  0
  9 18  1  0
  9 19  1  0
 10 11  1  0
 10 15  1  0
 10 34  1  0
 10 35  1  0
 11 12  1  0
 11 13  1  0
 14 16  1  0
 14 20  1  0
 14 21  1  0
 15 17  1  0
 15 32  1  0
 15 33  1  0
 16 24  1  0
 16 30  1  0
 16 31  1  0
 17 22  1  0
 17 23  1  0
 17 27  1  0
 24 25  1  0
 24 26  1  0
 24 27  1  0
 27 28  1  0
 27 29  1  0
M  CHG  1   1   1
M  RAD  1   1   2
M  END
$$$$

     RDKit          3D

 37 37  0  0  0  0  0  0  0  0999 V2000
    0.7768    1.0181   -2.6064 S   0  0  0  0  0  2  0  0  0  0  0  0
    2.8166    0.9923   -3.2443 Si  0  0  0  0  0  4  0  0  0  0  0  0
    3.5321    0.0187   -2.3842 H   0  0  0  0  0  0  0  0  0  0  0  0
    3.4520    2.3053   -3.1561 H   0  0  0  0  0  0  0  0  0  0  0  0
   -0.3928    2.4416   -3.6494 Si  0  0  0  0  0  4  0  0  0  0  0  0
    0.2334    3.7548   -3.7603 H   0  0  0  0  0  0  0  0  0  0  0  0
   -1.6595    2.6379   -2.8907 H   0  0  0  0  0  0  0  0  0  0  0  0
   -0.9219    1.6885   -5.6654 Si  0  0  0  0  0  4  0  0  0  0  0  0
   -2.0083    3.1773   -6.8831 Si  0  0  0  0  0  4  0  0  0  0  0  0
    1.7784   -1.5920   -5.6452 Si  0  0  0  0  0  4  0  0  0  0  0  0
    2.9993    0.2203   -5.3472 Si  0  0  0  0  0  4  0  0  0  0  0  0
    4.4282   -0.1518   -5.5540 H   0  0  0  0  0  0  0  0  0  0  0  0
    2.7049    1.2966   -6.2685 H   0  0  0  0  0  0  0  0  0  0  0  0
   -2.8746    2.1389   -8.6803 Si  0  0  0  0  0  4  0  0  0  0  0  0
    2.7067   -2.9379   -7.1459 Si  0  0  0  0  0  4  0  0  0  0  0  0
   -2.0355    0.0650   -8.8282 Si  0  0  0  0  0  4  0  0  0  0  0  0
    2.0913   -2.4607   -9.2161 Si  0  0  0  0  0  4  0  0  0  0  0  0
   -3.0760    3.8219   -6.1074 H   0  0  0  0  0  0  0  0  0  0  0  0
   -1.0833    4.2013   -7.3619 H   0  0  0  0  0  0  0  0  0  0  0  0
   -4.3379    2.0132   -8.5505 H   0  0  0  0  0  0  0  0  0  0  0  0
   -2.5921    2.9094   -9.8996 H   0  0  0  0  0  0  0  0  0  0  0  0
    0.9590   -3.3115   -9.5902 H   0  0  0  0  0  0  0  0  0  0  0  0
    3.2288   -2.7816  -10.1135 H   0  0  0  0  0  0  0  0  0  0  0  0
   -0.4400   -0.0443  -10.3821 Si  0  0  0  0  0  4  0  0  0  0  0  0
   -0.7407   -1.0957  -11.3787 H   0  0  0  0  0  0  0  0  0  0  0  0
   -0.4432    1.2495  -11.1020 H   0  0  0  0  0  0  0  0  0  0  0  0
    1.5754   -0.3139   -9.4783 Si  0  0  0  0  0  4  0  0  0  0  0  0
    2.5920    0.4087  -10.2685 H   0  0  0  0  0  0  0  0  0  0  0  0
    1.5723    0.3103   -8.1405 H   0  0  0  0  0  0  0  0  0  0  0  0
   -1.4296   -0.2601   -7.5264 H   0  0  0  0  0  0  0  0  0  0  0  0
   -3.1037   -0.9042   -9.1454 H   0  0  0  0  0  0  0  0  0  0  0  0
    4.1619   -2.8906   -6.9646 H   0  0  0  0  0  0  0  0  0  0  0  0
    2.2787   -4.3205   -6.8319 H   0  0  0  0  0  0  0  0  0  0  0  0
    0.3943   -1.3184   -6.0095 H   0  0  0  0  0  0  0  0  0  0  0  0
    1.7356   -2.3360   -4.3531 H   0  0  0  0  0  0  0  0  0  0  0  0
   -1.7443    0.4536   -5.5538 H   0  0  0  0  0  0  0  0  0  0  0  0
    0.3066    1.3036   -6.3595 H   0  0  0  0  0  0  0  0  0  0  0  0
  1  2  1  0
  1  5  1  0
  2  3  1  0
  2  4  1  0
  2 11  1  0
  5  6  1  0
  5  7  1  0
  5  8  1  0
  8  9  1  0
  8 36  1  0
  8 37  1  0
  9 14  1  0
  9 18  1  0
  9 19  1  0
 10 11  1  0
 10 15  1  0
 10 34  1  0
 10 35  1  0
 11 12  1  0
 11 13  1  0
 14 16  1  0
 14 20  1  0
 14 21  1  0
 15 17  1  0
 15 32  1  0
 15 33  1  0
 16 24  1  0
 16 30  1  0
 16 31  1  0
 17 22  1  0
 17 23  1  0
 17 27  1  0
 24 25  1  0
 24 26  1  0
 24 27  1  0
 27 28  1  0
 27 29  1  0
M  CHG  1   1   1
M  RAD  1   1   2
M  END
$$$$
