
     RDKit          3D

 37 37  0  0  0  0  0  0  0  0999 V2000
    0.0929    0.0838    3.2299 S   0  0  0  0  0  2  0  0  0  0  0  0
   -0.3954   -1.9547    3.7782 Si  0  0  0  0  0  4  0  0  0  0  0  0
   -1.6194   -2.3150    3.0654 H   0  0  0  0  0  0  0  0  0  0  0  0
    0.7314   -2.7844    3.3337 H   0  0  0  0  0  0  0  0  0  0  0  0
   -1.0652    1.4756    4.3744 Si  0  0  0  0  0  4  0  0  0  0  0  0
   -2.1080    2.0187    3.4606 H   0  0  0  0  0  0  0  0  0  0  0  0
   -1.7549    0.8323    5.4803 H   0  0  0  0  0  0  0  0  0  0  0  0
    0.1728    3.1993    5.0673 Si  0  0  0  0  0  4  0  0  0  0  0  0
   -0.0499    3.5690    7.2365 Si  0  0  0  0  0  4  0  0  0  0  0  0
   -1.2676   -4.0038    6.7170 Si  0  0  0  0  0  4  0  0  0  0  0  0
   -0.6710   -2.0221    5.9672 Si  0  0  0  0  0  4  0  0  0  0  0  0
    0.5879   -1.5372    6.5999 H   0  0  0  0  0  0  0  0  0  0  0  0
   -1.7018   -1.0205    6.3325 H   0  0  0  0  0  0  0  0  0  0  0  0
   -1.3418    1.9738    8.1668 Si  0  0  0  0  0  4  0  0  0  0  0  0
   -3.2172   -3.8680    7.8018 Si  0  0  0  0  0  4  0  0  0  0  0  0
   -1.3002    2.1661   10.3938 Si  0  0  0  0  0  4  0  0  0  0  0  0
   -3.2877   -2.1565    9.1899 Si  0  0  0  0  0  4  0  0  0  0  0  0
   -0.5431    4.8969    7.5570 H   0  0  0  0  0  0  0  0  0  0  0  0
    1.2935    3.4112    7.8608 H   0  0  0  0  0  0  0  0  0  0  0  0
   -0.6689    0.6840    7.8556 H   0  0  0  0  0  0  0  0  0  0  0  0
   -2.6912    2.0169    7.6322 H   0  0  0  0  0  0  0  0  0  0  0  0
   -4.0510   -2.5701   10.3995 H   0  0  0  0  0  0  0  0  0  0  0  0
   -4.0132   -0.9965    8.6272 H   0  0  0  0  0  0  0  0  0  0  0  0
   -1.5342    0.1655   11.3332 Si  0  0  0  0  0  4  0  0  0  0  0  0
   -2.8815    0.0935   11.9226 H   0  0  0  0  0  0  0  0  0  0  0  0
   -0.5576    0.0063   12.4312 H   0  0  0  0  0  0  0  0  0  0  0  0
   -1.2901   -1.4828    9.8526 Si  0  0  0  0  0  4  0  0  0  0  0  0
   -0.4127   -1.1299    8.7534 H   0  0  0  0  0  0  0  0  0  0  0  0
   -0.6462   -2.6168   10.5734 H   0  0  0  0  0  0  0  0  0  0  0  0
   -2.3110    3.1148   10.8511 H   0  0  0  0  0  0  0  0  0  0  0  0
    0.0373    2.6863   10.7544 H   0  0  0  0  0  0  0  0  0  0  0  0
   -3.5451   -5.1505    8.4498 H   0  0  0  0  0  0  0  0  0  0  0  0
   -4.2650   -3.6610    6.7635 H   0  0  0  0  0  0  0  0  0  0  0  0
   -0.2565   -4.4428    7.7196 H   0  0  0  0  0  0  0  0  0  0  0  0
   -1.3808   -5.0167    5.6729 H   0  0  0  0  0  0  0  0  0  0  0  0
    1.5830    2.8981    4.6920 H   0  0  0  0  0  0  0  0  0  0  0  0
   -0.1699    4.4384    4.3152 H   0  0  0  0  0  0  0  0  0  0  0  0
  1  2  1  0
  1  5  1  0
  2  3  1  0
  2  4  1  0
  2 11  1  0
  5  6  1  0
  5  7  1  0
  5  8  1  0
  8  9  1  0
  8 36  1  0
  8 37  1  0
  9 14  1  0
  9 18  1  0
  9 19  1  0
 10 11  1  0
 10 15  1  0
 10 34  1  0
 10 35  1  0
 11 12  1  0
 11 13  1  0
 14 16  1  0
 14 20  1  0
 14 21  1  0
 15 17  1  0
 15 32  1  0
 15 33  1  0
 16 24  1  0
 16 30  1  0
 16 31  1  0
 17 22  1  0
 17 23  1  0
 17 27  1  0
 24 25  1  0
 24 26  1  0
 24 27  1  0
 27 28  1  0
 27 29  1  0
M  CHG  1   1   1
M  RAD  1   1   2
M  END
$$$$

     RDKit          3D

 37 37  0  0  0  0  0  0  0  0999 V2000
    0.0929    0.0838    3.2299 S   0  0  0  0  0  2  0  0  0  0  0  0
    0.4445   -1.3662    4.7606 Si  0  0  0  0  0  4  0  0  0  0  0  0
   -0.6058   -1.2203    5.7697 H   0  0  0  0  0  0  0  0  0  0  0  0
    1.7892   -1.1828    5.2959 H   0  0  0  0  0  0  0  0  0  0  0  0
   -0.9999    1.7386    4.1038 Si  0  0  0  0  0  4  0  0  0  0  0  0
   -0.9920    2.8217    3.0794 H   0  0  0  0  0  0  0  0  0  0  0  0
   -2.3936    1.3920    4.3350 H   0  0  0  0  0  0  0  0  0  0  0  0
    0.0223    2.5131    5.9069 Si  0  0  0  0  0  4  0  0  0  0  0  0
   -0.6433    1.4969    7.7676 Si  0  0  0  0  0  4  0  0  0  0  0  0
    0.8855   -4.8789    5.5257 Si  0  0  0  0  0  4  0  0  0  0  0  0
    0.2764   -3.4569    3.9521 Si  0  0  0  0  0  4  0  0  0  0  0  0
   -1.1019   -3.6436    3.5047 H   0  0  0  0  0  0  0  0  0  0  0  0
    1.1811   -3.5685    2.8147 H   0  0  0  0  0  0  0  0  0  0  0  0
    1.1770    1.1941    9.0566 Si  0  0  0  0  0  4  0  0  0  0  0  0
   -0.1132   -4.5125    7.4652 Si  0  0  0  0  0  4  0  0  0  0  0  0
    0.6719    0.1594   10.9440 Si  0  0  0  0  0  4  0  0  0  0  0  0
    0.5469   -2.6513    8.4423 Si  0  0  0  0  0  4  0  0  0  0  0  0
   -1.5739    2.3585    8.5519 H   0  0  0  0  0  0  0  0  0  0  0  0
   -1.3386    0.2470    7.5212 H   0  0  0  0  0  0  0  0  0  0  0  0
    1.7318    2.5463    9.3090 H   0  0  0  0  0  0  0  0  0  0  0  0
    2.1482    0.4583    8.2560 H   0  0  0  0  0  0  0  0  0  0  0  0
    0.9913   -1.6270    7.5153 H   0  0  0  0  0  0  0  0  0  0  0  0
   -0.5856   -2.1244    9.2565 H   0  0  0  0  0  0  0  0  0  0  0  0
    2.1880   -1.4230   11.4445 Si  0  0  0  0  0  4  0  0  0  0  0  0
    1.7706   -2.0169   12.7327 H   0  0  0  0  0  0  0  0  0  0  0  0
    3.4951   -0.7955   11.6353 H   0  0  0  0  0  0  0  0  0  0  0  0
    2.2258   -3.0151    9.8930 Si  0  0  0  0  0  4  0  0  0  0  0  0
    2.1250   -4.3576   10.4605 H   0  0  0  0  0  0  0  0  0  0  0  0
    3.5011   -2.9314    9.1525 H   0  0  0  0  0  0  0  0  0  0  0  0
    0.7378    1.1557   12.0443 H   0  0  0  0  0  0  0  0  0  0  0  0
   -0.6774   -0.3940   10.9598 H   0  0  0  0  0  0  0  0  0  0  0  0
    0.1944   -5.6504    8.3594 H   0  0  0  0  0  0  0  0  0  0  0  0
   -1.5654   -4.5061    7.2773 H   0  0  0  0  0  0  0  0  0  0  0  0
    2.3425   -4.8468    5.6558 H   0  0  0  0  0  0  0  0  0  0  0  0
    0.5162   -6.2459    5.0777 H   0  0  0  0  0  0  0  0  0  0  0  0
    1.4842    2.3323    5.7101 H   0  0  0  0  0  0  0  0  0  0  0  0
   -0.2574    3.9574    6.0632 H   0  0  0  0  0  0  0  0  0  0  0  0
  1  2  1  0
  1  5  1  0
  2  3  1  0
  2  4  1  0
  2 11  1  0
  5  6  1  0
  5  7  1  0
  5  8  1  0
  8  9  1  0
  8 36  1  0
  8 37  1  0
  9 14  1  0
  9 18  1  0
  9 19  1  0
 10 11  1  0
 10 15  1  0
 10 34  1  0
 10 35  1  0
 11 12  1  0
 11 13  1  0
 14 16  1  0
 14 20  1  0
 14 21  1  0
 15 17  1  0
 15 32  1  0
 15 33  1  0
 16 24  1  0
 16 30  1  0
 16 31  1  0
 17 22  1  0
 17 23  1  0
 17 27  1  0
 24 25  1  0
 24 26  1  0
 24 27  1  0
 27 28  1  0
 27 29  1  0
M  CHG  1   1   1
M  RAD  1   1   2
M  END
$$$$

     RDKit          3D

 37 37  0  0  0  0  0  0  0  0999 V2000
    0.0929    0.0838    3.2299 S   0  0  0  0  0  2  0  0  0  0  0  0
   -1.0329    1.8483    3.5911 Si  0  0  0  0  0  4  0  0  0  0  0  0
   -1.8147    2.2228    2.4263 H   0  0  0  0  0  0  0  0  0  0  0  0
   -1.9676    1.5624    4.7156 H   0  0  0  0  0  0  0  0  0  0  0  0
    1.1035   -0.5953    4.9552 Si  0  0  0  0  0  4  0  0  0  0  0  0
    1.6663   -1.9279    4.6996 H   0  0  0  0  0  0  0  0  0  0  0  0
    2.1854    0.3216    5.3599 H   0  0  0  0  0  0  0  0  0  0  0  0
   -0.2762   -0.7822    6.7239 Si  0  0  0  0  0  4  0  0  0  0  0  0
    0.9681   -1.3296    8.4647 Si  0  0  0  0  0  4  0  0  0  0  0  0
    0.2256    3.6755    6.5381 Si  0  0  0  0  0  4  0  0  0  0  0  0
    0.2785    3.5330    4.2955 Si  0  0  0  0  0  4  0  0  0  0  0  0
    1.6527    3.3154    3.8880 H   0  0  0  0  0  0  0  0  0  0  0  0
   -0.1827    4.8173    3.7555 H   0  0  0  0  0  0  0  0  0  0  0  0
    0.2131   -0.5054   10.3714 Si  0  0  0  0  0  4  0  0  0  0  0  0
    2.1582    3.0474    7.4283 Si  0  0  0  0  0  4  0  0  0  0  0  0
   -1.4025    0.9662   10.1212 Si  0  0  0  0  0  4  0  0  0  0  0  0
    2.5961    4.0929    9.3334 Si  0  0  0  0  0  4  0  0  0  0  0  0
    1.0616   -2.8164    8.5059 H   0  0  0  0  0  0  0  0  0  0  0  0
    2.3608   -0.8591    8.2586 H   0  0  0  0  0  0  0  0  0  0  0  0
   -0.2298   -1.6546   11.2134 H   0  0  0  0  0  0  0  0  0  0  0  0
    1.3265    0.1142   11.1433 H   0  0  0  0  0  0  0  0  0  0  0  0
    2.2958    5.5049    9.1969 H   0  0  0  0  0  0  0  0  0  0  0  0
    4.0160    3.8790    9.6563 H   0  0  0  0  0  0  0  0  0  0  0  0
   -0.7620    3.0522   10.4449 Si  0  0  0  0  0  4  0  0  0  0  0  0
   -1.6379    3.7426   11.4361 H   0  0  0  0  0  0  0  0  0  0  0  0
   -0.9622    3.8112    9.1763 H   0  0  0  0  0  0  0  0  0  0  0  0
    1.3581    3.2470   11.0162 Si  0  0  0  0  0  4  0  0  0  0  0  0
    1.4634    4.2384   12.1260 H   0  0  0  0  0  0  0  0  0  0  0  0
    1.9569    2.0193   11.5097 H   0  0  0  0  0  0  0  0  0  0  0  0
   -2.0651    0.8043    8.7955 H   0  0  0  0  0  0  0  0  0  0  0  0
   -2.4678    0.6524   11.1177 H   0  0  0  0  0  0  0  0  0  0  0  0
    2.2344    1.5970    7.6152 H   0  0  0  0  0  0  0  0  0  0  0  0
    3.2302    3.4038    6.4652 H   0  0  0  0  0  0  0  0  0  0  0  0
   -0.1124    5.0470    6.9634 H   0  0  0  0  0  0  0  0  0  0  0  0
   -0.8615    2.8055    6.9995 H   0  0  0  0  0  0  0  0  0  0  0  0
   -1.0715    0.4123    6.9164 H   0  0  0  0  0  0  0  0  0  0  0  0
   -1.2174   -1.8874    6.3860 H   0  0  0  0  0  0  0  0  0  0  0  0
  1  2  1  0
  1  5  1  0
  2  3  1  0
  2  4  1  0
  2 11  1  0
  5  6  1  0
  5  7  1  0
  5  8  1  0
  8  9  1  0
  8 36  1  0
  8 37  1  0
  9 14  1  0
  9 18  1  0
  9 19  1  0
 10 11  1  0
 10 15  1  0
 10 34  1  0
 10 35  1  0
 11 12  1  0
 11 13  1  0
 14 16  1  0
 14 20  1  0
 14 21  1  0
 15 17  1  0
 15 32  1  0
 15 33  1  0
 16 24  1  0
 16 30  1  0
 16 31  1  0
 17 22  1  0
 17 23  1  0
 17 27  1  0
 24 25  1  0
 24 26  1  0
 24 27  1  0
 27 28  1  0
 27 29  1  0
M  CHG  1   1   1
M  RAD  1   1   2
M  END
$$$$

     RDKit          3D

 37 37  0  0  0  0  0  0  0  0999 V2000
    0.0929    0.0838    3.2299 S   0  0  0  0  0  2  0  0  0  0  0  0
   -0.5225    1.5622    4.6178 Si  0  0  0  0  0  4  0  0  0  0  0  0
   -0.5090    1.0604    5.9890 H   0  0  0  0  0  0  0  0  0  0  0  0
    0.3035    2.8005    4.5179 H   0  0  0  0  0  0  0  0  0  0  0  0
    1.7153   -1.0932    3.8804 Si  0  0  0  0  0  4  0  0  0  0  0  0
    3.0147   -0.6233    3.3257 H   0  0  0  0  0  0  0  0  0  0  0  0
    1.5373   -2.4661    3.3233 H   0  0  0  0  0  0  0  0  0  0  0  0
    1.8375   -1.2949    6.0851 Si  0  0  0  0  0  4  0  0  0  0  0  0
    2.4629    0.5650    7.0894 Si  0  0  0  0  0  4  0  0  0  0  0  0
   -3.8144    2.7589    5.7753 Si  0  0  0  0  0  4  0  0  0  0  0  0
   -2.6069    2.1910    4.0155 Si  0  0  0  0  0  4  0  0  0  0  0  0
   -3.2824    1.0684    3.3325 H   0  0  0  0  0  0  0  0  0  0  0  0
   -2.5532    3.3160    3.0787 H   0  0  0  0  0  0  0  0  0  0  0  0
    1.3557    0.9329    8.9856 Si  0  0  0  0  0  4  0  0  0  0  0  0
   -2.9136    1.8422    7.5937 Si  0  0  0  0  0  4  0  0  0  0  0  0
    0.0123   -0.7683    9.5027 Si  0  0  0  0  0  4  0  0  0  0  0  0
   -3.4996   -0.3322    7.6748 Si  0  0  0  0  0  4  0  0  0  0  0  0
    3.9120    0.5094    7.4341 H   0  0  0  0  0  0  0  0  0  0  0  0
    2.3282    1.7052    6.1537 H   0  0  0  0  0  0  0  0  0  0  0  0
    0.5616    2.1692    8.8271 H   0  0  0  0  0  0  0  0  0  0  0  0
    2.2693    1.1340   10.1273 H   0  0  0  0  0  0  0  0  0  0  0  0
   -4.7754   -0.5571    7.0153 H   0  0  0  0  0  0  0  0  0  0  0  0
   -2.4034   -1.0889    7.0528 H   0  0  0  0  0  0  0  0  0  0  0  0
   -1.6973   -0.0909   10.7853 Si  0  0  0  0  0  4  0  0  0  0  0  0
   -1.7679    1.3838   10.6594 H   0  0  0  0  0  0  0  0  0  0  0  0
   -1.5556   -0.5230   12.1621 H   0  0  0  0  0  0  0  0  0  0  0  0
   -3.5958   -0.8815    9.8607 Si  0  0  0  0  0  4  0  0  0  0  0  0
   -3.6698   -2.3433    9.9992 H   0  0  0  0  0  0  0  0  0  0  0  0
   -4.7342   -0.1889   10.4321 H   0  0  0  0  0  0  0  0  0  0  0  0
   -0.4657   -1.3634    8.2699 H   0  0  0  0  0  0  0  0  0  0  0  0
    0.7697   -1.8118   10.2342 H   0  0  0  0  0  0  0  0  0  0  0  0
   -3.3873    2.5276    8.7933 H   0  0  0  0  0  0  0  0  0  0  0  0
   -1.4579    1.9923    7.5370 H   0  0  0  0  0  0  0  0  0  0  0  0
   -3.8622    4.2241    5.9594 H   0  0  0  0  0  0  0  0  0  0  0  0
   -5.2014    2.2622    5.6405 H   0  0  0  0  0  0  0  0  0  0  0  0
    0.5637   -1.8260    6.5709 H   0  0  0  0  0  0  0  0  0  0  0  0
    2.8605   -2.3400    6.3778 H   0  0  0  0  0  0  0  0  0  0  0  0
  1  2  1  0
  1  5  1  0
  2  3  1  0
  2  4  1  0
  2 11  1  0
  5  6  1  0
  5  7  1  0
  5  8  1  0
  8  9  1  0
  8 36  1  0
  8 37  1  0
  9 14  1  0
  9 18  1  0
  9 19  1  0
 10 11  1  0
 10 15  1  0
 10 34  1  0
 10 35  1  0
 11 12  1  0
 11 13  1  0
 14 16  1  0
 14 20  1  0
 14 21  1  0
 15 17  1  0
 15 32  1  0
 15 33  1  0
 16 24  1  0
 16 30  1  0
 16 31  1  0
 17 22  1  0
 17 23  1  0
 17 27  1  0
 24 25  1  0
 24 26  1  0
 24 27  1  0
 27 28  1  0
 27 29  1  0
M  CHG  1   1   1
M  RAD  1   1   2
M  END
$$$$

     RDKit          3D

 37 37  0  0  0  0  0  0  0  0999 V2000
    0.0929    0.0838    3.2299 S   0  0  0  0  0  2  0  0  0  0  0  0
    2.1313   -0.1886    3.7179 Si  0  0  0  0  0  4  0  0  0  0  0  0
    2.9153    0.9525    3.1706 H   0  0  0  0  0  0  0  0  0  0  0  0
    2.6176   -1.4083    3.0314 H   0  0  0  0  0  0  0  0  0  0  0  0
   -0.6717    1.9782    3.7977 Si  0  0  0  0  0  4  0  0  0  0  0  0
   -1.6619    2.3954    2.7637 H   0  0  0  0  0  0  0  0  0  0  0  0
    0.3400    3.0293    3.8452 H   0  0  0  0  0  0  0  0  0  0  0  0
   -1.7839    1.7664    5.7123 Si  0  0  0  0  0  4  0  0  0  0  0  0
   -1.3180    3.4143    7.1335 Si  0  0  0  0  0  4  0  0  0  0  0  0
    1.1012   -1.5947    6.9686 Si  0  0  0  0  0  4  0  0  0  0  0  0
    2.5158   -0.2957    5.8894 Si  0  0  0  0  0  4  0  0  0  0  0  0
    3.9001   -0.7932    6.0868 H   0  0  0  0  0  0  0  0  0  0  0  0
    2.5023    1.0948    6.4242 H   0  0  0  0  0  0  0  0  0  0  0  0
   -1.3616    2.5960    9.2320 Si  0  0  0  0  0  4  0  0  0  0  0  0
    2.0921   -3.0451    8.3113 Si  0  0  0  0  0  4  0  0  0  0  0  0
    0.5155    3.0400   10.3120 Si  0  0  0  0  0  4  0  0  0  0  0  0
    2.1644   -2.1688   10.3883 Si  0  0  0  0  0  4  0  0  0  0  0  0
   -2.3883    4.4391    6.9750 H   0  0  0  0  0  0  0  0  0  0  0  0
   -0.0553    4.0566    6.8338 H   0  0  0  0  0  0  0  0  0  0  0  0
   -1.5222    1.1190    9.1878 H   0  0  0  0  0  0  0  0  0  0  0  0
   -2.5206    3.1504    9.9217 H   0  0  0  0  0  0  0  0  0  0  0  0
    3.2435   -2.8652   11.1155 H   0  0  0  0  0  0  0  0  0  0  0  0
    0.9055   -2.4156   11.1010 H   0  0  0  0  0  0  0  0  0  0  0  0
    1.2530    1.2437   11.4487 Si  0  0  0  0  0  4  0  0  0  0  0  0
    0.1256    0.5090   11.9933 H   0  0  0  0  0  0  0  0  0  0  0  0
    2.0700    1.7527   12.5824 H   0  0  0  0  0  0  0  0  0  0  0  0
    2.5790    0.0071   10.1714 Si  0  0  0  0  0  4  0  0  0  0  0  0
    4.0026    0.2209   10.5090 H   0  0  0  0  0  0  0  0  0  0  0  0
    2.3871    0.4579    8.7651 H   0  0  0  0  0  0  0  0  0  0  0  0
    0.2540    4.1329   11.2749 H   0  0  0  0  0  0  0  0  0  0  0  0
    1.5619    3.4576    9.3601 H   0  0  0  0  0  0  0  0  0  0  0  0
    1.2648   -4.2704    8.4079 H   0  0  0  0  0  0  0  0  0  0  0  0
    3.4210   -3.4348    7.8604 H   0  0  0  0  0  0  0  0  0  0  0  0
    0.2086   -2.2500    5.9959 H   0  0  0  0  0  0  0  0  0  0  0  0
    0.2202   -0.7246    7.8000 H   0  0  0  0  0  0  0  0  0  0  0  0
   -1.3846    0.4942    6.3759 H   0  0  0  0  0  0  0  0  0  0  0  0
   -3.2426    1.6427    5.4768 H   0  0  0  0  0  0  0  0  0  0  0  0
  1  2  1  0
  1  5  1  0
  2  3  1  0
  2  4  1  0
  2 11  1  0
  5  6  1  0
  5  7  1  0
  5  8  1  0
  8  9  1  0
  8 36  1  0
  8 37  1  0
  9 14  1  0
  9 18  1  0
  9 19  1  0
 10 11  1  0
 10 15  1  0
 10 34  1  0
 10 35  1  0
 11 12  1  0
 11 13  1  0
 14 16  1  0
 14 20  1  0
 14 21  1  0
 15 17  1  0
 15 32  1  0
 15 33  1  0
 16 24  1  0
 16 30  1  0
 16 31  1  0
 17 22  1  0
 17 23  1  0
 17 27  1  0
 24 25  1  0
 24 26  1  0
 24 27  1  0
 27 28  1  0
 27 29  1  0
M  CHG  1   1   1
M  RAD  1   1   2
M  END
$$$$

     RDKit          3D

 37 37  0  0  0  0  0  0  0  0999 V2000
    0.0929    0.0838    3.2299 S   0  0  0  0  0  2  0  0  0  0  0  0
    2.1396   -0.1167    3.7179 Si  0  0  0  0  0  4  0  0  0  0  0  0
    2.8828    1.0519    3.1717 H   0  0  0  0  0  0  0  0  0  0  0  0
    2.6689   -1.3179    3.0303 H   0  0  0  0  0  0  0  0  0  0  0  0
   -0.7383    1.9494    3.7994 Si  0  0  0  0  0  4  0  0  0  0  0  0
   -1.7426    2.3323    2.7656 H   0  0  0  0  0  0  0  0  0  0  0  0
    0.2355    3.0356    3.8479 H   0  0  0  0  0  0  0  0  0  0  0  0
   -1.8425    1.6967    5.7136 Si  0  0  0  0  0  4  0  0  0  0  0  0
   -1.4353    3.3587    7.1363 Si  0  0  0  0  0  4  0  0  0  0  0  0
    1.1596   -1.5614    6.9672 Si  0  0  0  0  0  4  0  0  0  0  0  0
    2.5275   -0.2121    5.8893 Si  0  0  0  0  0  4  0  0  0  0  0  0
    3.9285   -0.6605    6.0864 H   0  0  0  0  0  0  0  0  0  0  0  0
    2.4647    1.1765    6.4254 H   0  0  0  0  0  0  0  0  0  0  0  0
   -1.4501    2.5375    9.2341 Si  0  0  0  0  0  4  0  0  0  0  0  0
    2.2011   -2.9770    8.3087 Si  0  0  0  0  0  4  0  0  0  0  0  0
    0.4100    3.0466   10.3147 Si  0  0  0  0  0  4  0  0  0  0  0  0
    2.2422   -2.1006   10.3864 Si  0  0  0  0  0  4  0  0  0  0  0  0
   -2.5412    4.3451    6.9787 H   0  0  0  0  0  0  0  0  0  0  0  0
   -0.1961    4.0456    6.8374 H   0  0  0  0  0  0  0  0  0  0  0  0
   -1.5583    1.0557    9.1886 H   0  0  0  0  0  0  0  0  0  0  0  0
   -2.6280    3.0498    9.9242 H   0  0  0  0  0  0  0  0  0  0  0  0
    3.3452   -2.7591   11.1131 H   0  0  0  0  0  0  0  0  0  0  0  0
    0.9927   -2.3925   11.0988 H   0  0  0  0  0  0  0  0  0  0  0  0
    1.2105    1.2765   11.4499 Si  0  0  0  0  0  4  0  0  0  0  0  0
    0.1098    0.5018   11.9937 H   0  0  0  0  0  0  0  0  0  0  0  0
    2.0089    1.8130   12.5842 H   0  0  0  0  0  0  0  0  0  0  0  0
    2.5796    0.0887   10.1717 Si  0  0  0  0  0  4  0  0  0  0  0  0
    3.9947    0.3525   10.5096 H   0  0  0  0  0  0  0  0  0  0  0  0
    2.3720    0.5337    8.7658 H   0  0  0  0  0  0  0  0  0  0  0  0
    0.1099    4.1287   11.2786 H   0  0  0  0  0  0  0  0  0  0  0  0
    1.4411    3.5018    9.3633 H   0  0  0  0  0  0  0  0  0  0  0  0
    1.4177   -4.2310    8.4040 H   0  0  0  0  0  0  0  0  0  0  0  0
    3.5430   -3.3191    7.8576 H   0  0  0  0  0  0  0  0  0  0  0  0
    0.2909   -2.2469    5.9938 H   0  0  0  0  0  0  0  0  0  0  0  0
    0.2483   -0.7238    7.7993 H   0  0  0  0  0  0  0  0  0  0  0  0
   -1.3985    0.4387    6.3761 H   0  0  0  0  0  0  0  0  0  0  0  0
   -3.2959    1.5216    5.4779 H   0  0  0  0  0  0  0  0  0  0  0  0
  1  2  1  0
  1  5  1  0
  2  3  1  0
  2  4  1  0
  2 11  1  0
  5  6  1  0
  5  7  1  0
  5  8  1  0
  8  9  1  0
  8 36  1  0
  8 37  1  0
  9 14  1  0
  9 18  1  0
  9 19  1  0
 10 11  1  0
 10 15  1  0
 10 34  1  0
 10 35  1  0
 11 12  1  0
 11 13  1  0
 14 16  1  0
 14 20  1  0
 14 21  1  0
 15 17  1  0
 15 32  1  0
 15 33  1  0
 16 24  1  0
 16 30  1  0
 16 31  1  0
 17 22  1  0
 17 23  1  0
 17 27  1  0
 24 25  1  0
 24 26  1  0
 24 27  1  0
 27 28  1  0
 27 29  1  0
M  CHG  1   1   1
M  RAD  1   1   2
M  END
$$$$

     RDKit          3D

 37 37  0  0  0  0  0  0  0  0999 V2000
    0.0929    0.0838    3.2299 S   0  0  0  0  0  2  0  0  0  0  0  0
   -1.4765    1.4579    3.8160 Si  0  0  0  0  0  4  0  0  0  0  0  0
   -1.2689    2.6979    3.0708 H   0  0  0  0  0  0  0  0  0  0  0  0
   -2.7451    0.8251    3.4341 H   0  0  0  0  0  0  0  0  0  0  0  0
    1.9039    0.5013    4.2947 Si  0  0  0  0  0  4  0  0  0  0  0  0
    2.8247    1.1645    3.3304 H   0  0  0  0  0  0  0  0  0  0  0  0
    1.6899    1.4292    5.3928 H   0  0  0  0  0  0  0  0  0  0  0  0
    2.9021   -1.3730    4.9834 Si  0  0  0  0  0  4  0  0  0  0  0  0
    3.4195   -1.3026    7.1326 Si  0  0  0  0  0  4  0  0  0  0  0  0
   -2.7844    3.2235    6.7772 Si  0  0  0  0  0  4  0  0  0  0  0  0
   -1.3229    1.7751    5.9951 Si  0  0  0  0  0  4  0  0  0  0  0  0
   -1.4388    0.4457    6.6581 H   0  0  0  0  0  0  0  0  0  0  0  0
    0.0517    2.2426    6.2965 H   0  0  0  0  0  0  0  0  0  0  0  0
    2.6256    0.5918    8.0601 Si  0  0  0  0  0  4  0  0  0  0  0  0
   -1.7330    4.9168    7.7888 Si  0  0  0  0  0  4  0  0  0  0  0  0
    2.8674    0.5090   10.2811 Si  0  0  0  0  0  4  0  0  0  0  0  0
   -0.1225    4.2254    9.1264 Si  0  0  0  0  0  4  0  0  0  0  0  0
    4.8382   -1.4630    7.3992 H   0  0  0  0  0  0  0  0  0  0  0  0
    2.6931   -2.4143    7.8077 H   0  0  0  0  0  0  0  0  0  0  0  0
    1.1595    0.5751    7.8079 H   0  0  0  0  0  0  0  0  0  0  0  0
    3.2562    1.7628    7.4775 H   0  0  0  0  0  0  0  0  0  0  0  0
   -0.0945    5.1160   10.3193 H   0  0  0  0  0  0  0  0  0  0  0  0
    1.2169    4.3316    8.5072 H   0  0  0  0  0  0  0  0  0  0  0  0
    1.2318    1.6470   11.2659 Si  0  0  0  0  0  4  0  0  0  0  0  0
    1.8044    2.8898   11.8094 H   0  0  0  0  0  0  0  0  0  0  0  0
    0.6901    0.8711   12.4014 H   0  0  0  0  0  0  0  0  0  0  0  0
   -0.4052    2.1533    9.8402 Si  0  0  0  0  0  4  0  0  0  0  0  0
   -0.5346    1.1909    8.7633 H   0  0  0  0  0  0  0  0  0  0  0  0
   -1.6780    2.1109   10.6138 H   0  0  0  0  0  0  0  0  0  0  0  0
    4.1895    0.9845   10.6767 H   0  0  0  0  0  0  0  0  0  0  0  0
    2.7362   -0.9115   10.6742 H   0  0  0  0  0  0  0  0  0  0  0  0
   -2.6987    5.8055    8.4596 H   0  0  0  0  0  0  0  0  0  0  0  0
   -1.1140    5.7353    6.7092 H   0  0  0  0  0  0  0  0  0  0  0  0
   -3.5946    2.5428    7.8263 H   0  0  0  0  0  0  0  0  0  0  0  0
   -3.6760    3.7663    5.7578 H   0  0  0  0  0  0  0  0  0  0  0  0
    1.9775   -2.4976    4.6662 H   0  0  0  0  0  0  0  0  0  0  0  0
    4.1300   -1.6471    4.1863 H   0  0  0  0  0  0  0  0  0  0  0  0
  1  2  1  0
  1  5  1  0
  2  3  1  0
  2  4  1  0
  2 11  1  0
  5  6  1  0
  5  7  1  0
  5  8  1  0
  8  9  1  0
  8 36  1  0
  8 37  1  0
  9 14  1  0
  9 18  1  0
  9 19  1  0
 10 11  1  0
 10 15  1  0
 10 34  1  0
 10 35  1  0
 11 12  1  0
 11 13  1  0
 14 16  1  0
 14 20  1  0
 14 21  1  0
 15 17  1  0
 15 32  1  0
 15 33  1  0
 16 24  1  0
 16 30  1  0
 16 31  1  0
 17 22  1  0
 17 23  1  0
 17 27  1  0
 24 25  1  0
 24 26  1  0
 24 27  1  0
 27 28  1  0
 27 29  1  0
M  CHG  1   1   1
M  RAD  1   1   2
M  END
$$$$

     RDKit          3D

 37 37  0  0  0  0  0  0  0  0999 V2000
    0.0929    0.0838    3.2299 S   0  0  0  0  0  2  0  0  0  0  0  0
    2.0622   -0.6763    3.7182 Si  0  0  0  0  0  4  0  0  0  0  0  0
    2.2482   -1.9158    2.9664 H   0  0  0  0  0  0  0  0  0  0  0  0
    3.0208    0.3472    3.2835 H   0  0  0  0  0  0  0  0  0  0  0  0
   -1.4134   -0.9185    4.3765 Si  0  0  0  0  0  4  0  0  0  0  0  0
   -2.1038   -1.8571    3.4492 H   0  0  0  0  0  0  0  0  0  0  0  0
   -0.8424   -1.7158    5.4493 H   0  0  0  0  0  0  0  0  0  0  0  0
   -2.9498    0.5096    5.1404 Si  0  0  0  0  0  4  0  0  0  0  0  0
   -3.3022    0.2750    7.3112 Si  0  0  0  0  0  4  0  0  0  0  0  0
    4.0397   -1.8860    6.5858 Si  0  0  0  0  0  4  0  0  0  0  0  0
    2.1367   -1.0200    5.8974 Si  0  0  0  0  0  4  0  0  0  0  0  0
    1.8301    0.2723    6.5729 H   0  0  0  0  0  0  0  0  0  0  0  0
    1.0183   -1.9241    6.2595 H   0  0  0  0  0  0  0  0  0  0  0  0
   -1.8682   -1.2360    8.1712 Si  0  0  0  0  0  4  0  0  0  0  0  0
    3.6760   -3.8320    7.6234 Si  0  0  0  0  0  4  0  0  0  0  0  0
   -2.0097   -1.2329   10.4023 Si  0  0  0  0  0  4  0  0  0  0  0  0
    1.9973   -3.7221    9.0486 Si  0  0  0  0  0  4  0  0  0  0  0  0
   -4.6759   -0.0532    7.6496 H   0  0  0  0  0  0  0  0  0  0  0  0
   -2.9608    1.5691    7.9656 H   0  0  0  0  0  0  0  0  0  0  0  0
   -0.5090   -0.7251    7.8474 H   0  0  0  0  0  0  0  0  0  0  0  0
   -2.0947   -2.5531    7.6036 H   0  0  0  0  0  0  0  0  0  0  0  0
    2.3332   -4.5658   10.2284 H   0  0  0  0  0  0  0  0  0  0  0  0
    0.7429   -4.2772    8.4945 H   0  0  0  0  0  0  0  0  0  0  0  0
   -0.0375   -1.7473   11.2890 Si  0  0  0  0  0  4  0  0  0  0  0  0
   -0.1276   -3.1088   11.8420 H   0  0  0  0  0  0  0  0  0  0  0  0
    0.2674   -0.8303   12.4074 H   0  0  0  0  0  0  0  0  0  0  0  0
    1.5990   -1.6743    9.7772 Si  0  0  0  0  0  4  0  0  0  0  0  0
    1.3401   -0.7283    8.7092 H   0  0  0  0  0  0  0  0  0  0  0  0
    2.8203   -1.2013   10.4877 H   0  0  0  0  0  0  0  0  0  0  0  0
   -3.0711   -2.1266   10.8556 H   0  0  0  0  0  0  0  0  0  0  0  0
   -2.3465    0.1494   10.8088 H   0  0  0  0  0  0  0  0  0  0  0  0
    4.9182   -4.3394    8.2330 H   0  0  0  0  0  0  0  0  0  0  0  0
    3.3157   -4.8150    6.5639 H   0  0  0  0  0  0  0  0  0  0  0  0
    4.6247   -0.9680    7.6033 H   0  0  0  0  0  0  0  0  0  0  0  0
    5.0089   -2.0983    5.5159 H   0  0  0  0  0  0  0  0  0  0  0  0
   -2.4774    1.8798    4.7942 H   0  0  0  0  0  0  0  0  0  0  0  0
   -4.2372    0.3496    4.4087 H   0  0  0  0  0  0  0  0  0  0  0  0
  1  2  1  0
  1  5  1  0
  2  3  1  0
  2  4  1  0
  2 11  1  0
  5  6  1  0
  5  7  1  0
  5  8  1  0
  8  9  1  0
  8 36  1  0
  8 37  1  0
  9 14  1  0
  9 18  1  0
  9 19  1  0
 10 11  1  0
 10 15  1  0
 10 34  1  0
 10 35  1  0
 11 12  1  0
 11 13  1  0
 14 16  1  0
 14 20  1  0
 14 21  1  0
 15 17  1  0
 15 32  1  0
 15 33  1  0
 16 24  1  0
 16 30  1  0
 16 31  1  0
 17 22  1  0
 17 23  1  0
 17 27  1  0
 24 25  1  0
 24 26  1  0
 24 27  1  0
 27 28  1  0
 27 29  1  0
M  CHG  1   1   1
M  RAD  1   1   2
M  END
$$$$

     RDKit          3D

 37 37  0  0  0  0  0  0  0  0999 V2000
    0.0929    0.0838    3.2299 S   0  0  0  0  0  2  0  0  0  0  0  0
   -1.4141    1.5266    3.8146 Si  0  0  0  0  0  4  0  0  0  0  0  0
   -1.1521    2.7553    3.0679 H   0  0  0  0  0  0  0  0  0  0  0  0
   -2.7095    0.9500    3.4336 H   0  0  0  0  0  0  0  0  0  0  0  0
    1.9208    0.4221    4.2940 Si  0  0  0  0  0  4  0  0  0  0  0  0
    2.8698    1.0428    3.3289 H   0  0  0  0  0  0  0  0  0  0  0  0
    1.7482    1.3598    5.3911 H   0  0  0  0  0  0  0  0  0  0  0  0
    2.8352   -1.4937    4.9848 Si  0  0  0  0  0  4  0  0  0  0  0  0
    3.3556   -1.4438    7.1339 Si  0  0  0  0  0  4  0  0  0  0  0  0
   -2.6422    3.3516    6.7739 Si  0  0  0  0  0  4  0  0  0  0  0  0
   -1.2464    1.8392    5.9933 Si  0  0  0  0  0  4  0  0  0  0  0  0
   -1.4208    0.5170    6.6578 H   0  0  0  0  0  0  0  0  0  0  0  0
    0.1477    2.2458    6.2941 H   0  0  0  0  0  0  0  0  0  0  0  0
    2.6463    0.4848    8.0593 Si  0  0  0  0  0  4  0  0  0  0  0  0
   -1.5169    4.9980    7.7835 Si  0  0  0  0  0  4  0  0  0  0  0  0
    2.8846    0.3940   10.2803 Si  0  0  0  0  0  4  0  0  0  0  0  0
    0.0617    4.2376    9.1217 Si  0  0  0  0  0  4  0  0  0  0  0  0
    4.7658   -1.6665    7.4005 H   0  0  0  0  0  0  0  0  0  0  0  0
    2.5809   -2.5215    7.8103 H   0  0  0  0  0  0  0  0  0  0  0  0
    1.1809    0.5327    7.8073 H   0  0  0  0  0  0  0  0  0  0  0  0
    3.3280    1.6262    7.4753 H   0  0  0  0  0  0  0  0  0  0  0  0
    0.1292    5.1274   10.3135 H   0  0  0  0  0  0  0  0  0  0  0  0
    1.4043    4.2838    8.5022 H   0  0  0  0  0  0  0  0  0  0  0  0
    1.3010    1.6043   11.2640 Si  0  0  0  0  0  4  0  0  0  0  0  0
    1.9280    2.8212   11.8060 H   0  0  0  0  0  0  0  0  0  0  0  0
    0.7257    0.8544   12.4004 H   0  0  0  0  0  0  0  0  0  0  0  0
   -0.3122    2.1809    9.8379 Si  0  0  0  0  0  4  0  0  0  0  0  0
   -0.4843    1.2239    8.7621 H   0  0  0  0  0  0  0  0  0  0  0  0
   -1.5855    2.1956   10.6116 H   0  0  0  0  0  0  0  0  0  0  0  0
    4.2265    0.8111   10.6752 H   0  0  0  0  0  0  0  0  0  0  0  0
    2.6907   -1.0189   10.6750 H   0  0  0  0  0  0  0  0  0  0  0  0
   -2.4422    5.9292    8.4533 H   0  0  0  0  0  0  0  0  0  0  0  0
   -0.8625    5.7871    6.7028 H   0  0  0  0  0  0  0  0  0  0  0  0
   -3.4816    2.7086    7.8239 H   0  0  0  0  0  0  0  0  0  0  0  0
   -3.5091    3.9321    5.7539 H   0  0  0  0  0  0  0  0  0  0  0  0
    1.8618   -2.5768    4.6689 H   0  0  0  0  0  0  0  0  0  0  0  0
    4.0497   -1.8228    4.1879 H   0  0  0  0  0  0  0  0  0  0  0  0
  1  2  1  0
  1  5  1  0
  2  3  1  0
  2  4  1  0
  2 11  1  0
  5  6  1  0
  5  7  1  0
  5  8  1  0
  8  9  1  0
  8 36  1  0
  8 37  1  0
  9 14  1  0
  9 18  1  0
  9 19  1  0
 10 11  1  0
 10 15  1  0
 10 34  1  0
 10 35  1  0
 11 12  1  0
 11 13  1  0
 14 16  1  0
 14 20  1  0
 14 21  1  0
 15 17  1  0
 15 32  1  0
 15 33  1  0
 16 24  1  0
 16 30  1  0
 16 31  1  0
 17 22  1  0
 17 23  1  0
 17 27  1  0
 24 25  1  0
 24 26  1  0
 24 27  1  0
 27 28  1  0
 27 29  1  0
M  CHG  1   1   1
M  RAD  1   1   2
M  END
$$$$

     RDKit          3D

 37 37  0  0  0  0  0  0  0  0999 V2000
    0.0929    0.0838    3.2299 S   0  0  0  0  0  2  0  0  0  0  0  0
   -0.4431    1.5947    4.6158 Si  0  0  0  0  0  4  0  0  0  0  0  0
   -0.4559    1.0947    5.9877 H   0  0  0  0  0  0  0  0  0  0  0  0
    0.4474    2.7873    4.5141 H   0  0  0  0  0  0  0  0  0  0  0  0
    1.6508   -1.1766    3.8818 Si  0  0  0  0  0  4  0  0  0  0  0  0
    2.9731   -0.7770    3.3264 H   0  0  0  0  0  0  0  0  0  0  0  0
    1.4001   -2.5390    3.3266 H   0  0  0  0  0  0  0  0  0  0  0  0
    1.7626   -1.3816    6.0868 Si  0  0  0  0  0  4  0  0  0  0  0  0
    2.4858    0.4440    7.0885 Si  0  0  0  0  0  4  0  0  0  0  0  0
   -3.6666    2.9657    5.7721 Si  0  0  0  0  0  4  0  0  0  0  0  0
   -2.4913    2.3322    4.0130 Si  0  0  0  0  0  4  0  0  0  0  0  0
   -3.2254    1.2460    3.3316 H   0  0  0  0  0  0  0  0  0  0  0  0
   -2.3782    3.4515    3.0746 H   0  0  0  0  0  0  0  0  0  0  0  0
    1.4000    0.8726    8.9843 Si  0  0  0  0  0  4  0  0  0  0  0  0
   -2.8153    2.0051    7.5917 Si  0  0  0  0  0  4  0  0  0  0  0  0
   -0.0316   -0.7543    9.5039 Si  0  0  0  0  0  4  0  0  0  0  0  0
   -3.5158   -0.1351    7.6758 Si  0  0  0  0  0  4  0  0  0  0  0  0
    3.9300    0.3121    7.4331 H   0  0  0  0  0  0  0  0  0  0  0  0
    2.4115    1.5884    6.1512 H   0  0  0  0  0  0  0  0  0  0  0  0
    0.6725    2.1491    8.8241 H   0  0  0  0  0  0  0  0  0  0  0  0
    2.3233    1.0266   10.1256 H   0  0  0  0  0  0  0  0  0  0  0  0
   -4.8018   -0.2930    7.0168 H   0  0  0  0  0  0  0  0  0  0  0  0
   -2.4613   -0.9497    7.0547 H   0  0  0  0  0  0  0  0  0  0  0  0
   -1.7026    0.0146   10.7858 Si  0  0  0  0  0  4  0  0  0  0  0  0
   -1.6950    1.4908   10.6578 H   0  0  0  0  0  0  0  0  0  0  0  0
   -1.5837   -0.4226   12.1631 H   0  0  0  0  0  0  0  0  0  0  0  0
   -3.6405   -0.6756    9.8624 Si  0  0  0  0  0  4  0  0  0  0  0  0
   -3.7918   -2.1312   10.0030 H   0  0  0  0  0  0  0  0  0  0  0  0
   -4.7405    0.0772   10.4330 H   0  0  0  0  0  0  0  0  0  0  0  0
   -0.5407   -1.3248    8.2719 H   0  0  0  0  0  0  0  0  0  0  0  0
    0.6696   -1.8355   10.2367 H   0  0  0  0  0  0  0  0  0  0  0  0
   -3.2518    2.7163    8.7903 H   0  0  0  0  0  0  0  0  0  0  0  0
   -1.3538    2.0777    7.5346 H   0  0  0  0  0  0  0  0  0  0  0  0
   -3.6366    4.4316    5.9542 H   0  0  0  0  0  0  0  0  0  0  0  0
   -5.0780    2.5431    5.6381 H   0  0  0  0  0  0  0  0  0  0  0  0
    0.4624   -1.8437    6.5735 H   0  0  0  0  0  0  0  0  0  0  0  0
    2.7287   -2.4790    6.3808 H   0  0  0  0  0  0  0  0  0  0  0  0
  1  2  1  0
  1  5  1  0
  2  3  1  0
  2  4  1  0
  2 11  1  0
  5  6  1  0
  5  7  1  0
  5  8  1  0
  8  9  1  0
  8 36  1  0
  8 37  1  0
  9 14  1  0
  9 18  1  0
  9 19  1  0
 10 11  1  0
 10 15  1  0
 10 34  1  0
 10 35  1  0
 11 12  1  0
 11 13  1  0
 14 16  1  0
 14 20  1  0
 14 21  1  0
 15 17  1  0
 15 32  1  0
 15 33  1  0
 16 24  1  0
 16 30  1  0
 16 31  1  0
 17 22  1  0
 17 23  1  0
 17 27  1  0
 24 25  1  0
 24 26  1  0
 24 27  1  0
 27 28  1  0
 27 29  1  0
M  CHG  1   1   1
M  RAD  1   1   2
M  END
$$$$

     RDKit          3D

 37 37  0  0  0  0  0  0  0  0999 V2000
    0.0929    0.0838    3.2299 S   0  0  0  0  0  2  0  0  0  0  0  0
    2.1141   -0.2956    3.7181 Si  0  0  0  0  0  4  0  0  0  0  0  0
    2.9574    0.8016    3.1691 H   0  0  0  0  0  0  0  0  0  0  0  0
    2.5350   -1.5403    3.0331 H   0  0  0  0  0  0  0  0  0  0  0  0
   -0.5701    2.0168    3.7952 Si  0  0  0  0  0  4  0  0  0  0  0  0
   -1.5370    2.4846    2.7607 H   0  0  0  0  0  0  0  0  0  0  0  0
    0.4959    3.0129    3.8411 H   0  0  0  0  0  0  0  0  0  0  0  0
   -1.6916    1.8669    5.7102 Si  0  0  0  0  0  4  0  0  0  0  0  0
   -1.1387    3.4897    7.1290 Si  0  0  0  0  0  4  0  0  0  0  0  0
    1.0115   -1.6406    6.9708 Si  0  0  0  0  0  4  0  0  0  0  0  0
    2.4928   -0.4199    5.8896 Si  0  0  0  0  0  4  0  0  0  0  0  0
    3.8488   -0.9898    6.0875 H   0  0  0  0  0  0  0  0  0  0  0  0
    2.5531    0.9700    6.4225 H   0  0  0  0  0  0  0  0  0  0  0  0
   -1.2252    2.6778    9.2287 Si  0  0  0  0  0  4  0  0  0  0  0  0
    1.9244   -3.1397    8.3154 Si  0  0  0  0  0  4  0  0  0  0  0  0
    0.6729    3.0231   10.3078 Si  0  0  0  0  0  4  0  0  0  0  0  0
    2.0435   -2.2656   10.3911 Si  0  0  0  0  0  4  0  0  0  0  0  0
   -2.1533    4.5696    6.9693 H   0  0  0  0  0  0  0  0  0  0  0  0
    0.1562    4.0638    6.8284 H   0  0  0  0  0  0  0  0  0  0  0  0
   -1.4639    1.2113    9.1866 H   0  0  0  0  0  0  0  0  0  0  0  0
   -2.3531    3.2937    9.9178 H   0  0  0  0  0  0  0  0  0  0  0  0
    3.0842   -3.0173   11.1191 H   0  0  0  0  0  0  0  0  0  0  0  0
    0.7733   -2.4444   11.1043 H   0  0  0  0  0  0  0  0  0  0  0  0
    1.3144    1.1918   11.4470 Si  0  0  0  0  0  4  0  0  0  0  0  0
    0.1497    0.5187   11.9927 H   0  0  0  0  0  0  0  0  0  0  0  0
    2.1575    1.6584   12.5799 H   0  0  0  0  0  0  0  0  0  0  0  0
    2.5728   -0.1151   10.1712 Si  0  0  0  0  0  4  0  0  0  0  0  0
    4.0058    0.0235   10.5083 H   0  0  0  0  0  0  0  0  0  0  0  0
    2.4048    0.3433    8.7643 H   0  0  0  0  0  0  0  0  0  0  0  0
    0.4699    4.1296   11.2693 H   0  0  0  0  0  0  0  0  0  0  0  0
    1.7398    3.3833    9.3553 H   0  0  0  0  0  0  0  0  0  0  0  0
    1.0334   -4.3193    8.4137 H   0  0  0  0  0  0  0  0  0  0  0  0
    3.2307   -3.6000    7.8649 H   0  0  0  0  0  0  0  0  0  0  0  0
    0.0853   -2.2490    5.9991 H   0  0  0  0  0  0  0  0  0  0  0  0
    0.1780   -0.7240    7.8011 H   0  0  0  0  0  0  0  0  0  0  0  0
   -1.3602    0.5762    6.3755 H   0  0  0  0  0  0  0  0  0  0  0  0
   -3.1549    1.8204    5.4751 H   0  0  0  0  0  0  0  0  0  0  0  0
  1  2  1  0
  1  5  1  0
  2  3  1  0
  2  4  1  0
  2 11  1  0
  5  6  1  0
  5  7  1  0
  5  8  1  0
  8  9  1  0
  8 36  1  0
  8 37  1  0
  9 14  1  0
  9 18  1  0
  9 19  1  0
 10 11  1  0
 10 15  1  0
 10 34  1  0
 10 35  1  0
 11 12  1  0
 11 13  1  0
 14 16  1  0
 14 20  1  0
 14 21  1  0
 15 17  1  0
 15 32  1  0
 15 33  1  0
 16 24  1  0
 16 30  1  0
 16 31  1  0
 17 22  1  0
 17 23  1  0
 17 27  1  0
 24 25  1  0
 24 26  1  0
 24 27  1  0
 27 28  1  0
 27 29  1  0
M  CHG  1   1   1
M  RAD  1   1   2
M  END
$$$$
