
     RDKit          3D

 37 37  0  0  0  0  0  0  0  0999 V2000
    0.0000    0.0026    3.1942 S   0  0  0  0  0  2  0  0  0  0  0  0
    0.9781    1.7356    3.9680 Si  0  0  0  0  0  4  0  0  0  0  0  0
    0.0907    2.8983    3.6917 H   0  0  0  0  0  0  0  0  0  0  0  0
    2.2493    1.9897    3.2698 H   0  0  0  0  0  0  0  0  0  0  0  0
   -0.4172   -1.4445    4.6847 Si  0  0  0  0  0  4  0  0  0  0  0  0
    0.0954   -2.7648    4.2418 H   0  0  0  0  0  0  0  0  0  0  0  0
    0.2327   -1.1606    5.9699 H   0  0  0  0  0  0  0  0  0  0  0  0
   -2.6178   -1.6991    5.0211 Si  0  0  0  0  0  4  0  0  0  0  0  0
   -2.8884   -2.4889    7.0991 Si  0  0  0  0  0  4  0  0  0  0  0  0
    3.3402    0.8258    6.6516 Si  0  0  0  0  0  4  0  0  0  0  0  0
    1.3087    1.6329    6.1462 Si  0  0  0  0  0  4  0  0  0  0  0  0
    0.3259    0.7245    6.7444 H   0  0  0  0  0  0  0  0  0  0  0  0
    1.2008    2.9484    6.8022 H   0  0  0  0  0  0  0  0  0  0  0  0
   -3.9006   -0.9860    8.3769 Si  0  0  0  0  0  4  0  0  0  0  0  0
    3.5271    0.8175    8.8738 Si  0  0  0  0  0  4  0  0  0  0  0  0
   -2.4289    0.4432    9.2895 Si  0  0  0  0  0  4  0  0  0  0  0  0
    1.5789    1.3463    9.8507 Si  0  0  0  0  0  4  0  0  0  0  0  0
   -3.7540   -3.6895    7.0232 H   0  0  0  0  0  0  0  0  0  0  0  0
   -1.6055   -2.9360    7.6737 H   0  0  0  0  0  0  0  0  0  0  0  0
   -4.6939   -1.6587    9.4031 H   0  0  0  0  0  0  0  0  0  0  0  0
   -4.8487   -0.2184    7.5376 H   0  0  0  0  0  0  0  0  0  0  0  0
    0.6237    1.8947    8.8838 H   0  0  0  0  0  0  0  0  0  0  0  0
    1.8640    2.4046   10.8370 H   0  0  0  0  0  0  0  0  0  0  0  0
   -1.4185   -0.4393   11.0489 Si  0  0  0  0  0  4  0  0  0  0  0  0
   -1.8686   -1.8557   11.1619 H   0  0  0  0  0  0  0  0  0  0  0  0
   -1.8285    0.2299   12.3091 H   0  0  0  0  0  0  0  0  0  0  0  0
    0.7785   -0.4317   10.8884 Si  0  0  0  0  0  4  0  0  0  0  0  0
    1.2587   -1.6376   10.2064 H   0  0  0  0  0  0  0  0  0  0  0  0
    1.3420   -0.4459   12.2669 H   0  0  0  0  0  0  0  0  0  0  0  0
   -1.5138    0.9163    8.2742 H   0  0  0  0  0  0  0  0  0  0  0  0
   -3.2203    1.6103    9.7564 H   0  0  0  0  0  0  0  0  0  0  0  0
    4.5819    1.7816    9.2352 H   0  0  0  0  0  0  0  0  0  0  0  0
    3.9665   -0.5132    9.3411 H   0  0  0  0  0  0  0  0  0  0  0  0
    4.3833    1.6596    6.0196 H   0  0  0  0  0  0  0  0  0  0  0  0
    3.4009   -0.5558    6.1307 H   0  0  0  0  0  0  0  0  0  0  0  0
   -3.3349   -0.4311    4.9119 H   0  0  0  0  0  0  0  0  0  0  0  0
   -3.2069   -2.6148    4.0210 H   0  0  0  0  0  0  0  0  0  0  0  0
  1  2  1  0
  1  5  1  0
  2  3  1  0
  2  4  1  0
  2 11  1  0
  5  6  1  0
  5  7  1  0
  5  8  1  0
  8  9  1  0
  8 36  1  0
  8 37  1  0
  9 14  1  0
  9 18  1  0
  9 19  1  0
 10 11  1  0
 10 15  1  0
 10 34  1  0
 10 35  1  0
 11 12  1  0
 11 13  1  0
 14 16  1  0
 14 20  1  0
 14 21  1  0
 15 17  1  0
 15 32  1  0
 15 33  1  0
 16 24  1  0
 16 30  1  0
 16 31  1  0
 17 22  1  0
 17 23  1  0
 17 27  1  0
 24 25  1  0
 24 26  1  0
 24 27  1  0
 27 28  1  0
 27 29  1  0
M  CHG  1   1   1
M  RAD  1   1   2
M  END
$$$$

     RDKit          3D

 37 37  0  0  0  0  0  0  0  0999 V2000
    0.0000    0.0026    3.1942 S   0  0  0  0  0  2  0  0  0  0  0  0
    1.2009   -1.0871    4.5851 Si  0  0  0  0  0  4  0  0  0  0  0  0
    1.2972   -0.4267    5.8868 H   0  0  0  0  0  0  0  0  0  0  0  0
    2.5917   -1.2179    4.0766 H   0  0  0  0  0  0  0  0  0  0  0  0
    0.0490    2.1014    3.6667 Si  0  0  0  0  0  4  0  0  0  0  0  0
   -0.3274    2.8424    2.4624 H   0  0  0  0  0  0  0  0  0  0  0  0
    1.3968    2.4942    4.1205 H   0  0  0  0  0  0  0  0  0  0  0  0
   -1.4087    2.5480    5.2851 Si  0  0  0  0  0  4  0  0  0  0  0  0
   -0.7434    1.6026    7.2033 Si  0  0  0  0  0  4  0  0  0  0  0  0
   -1.5165   -3.1139    6.0173 Si  0  0  0  0  0  4  0  0  0  0  0  0
    0.4165   -3.1509    4.9006 Si  0  0  0  0  0  4  0  0  0  0  0  0
    0.1763   -3.7899    3.5896 H   0  0  0  0  0  0  0  0  0  0  0  0
    1.3936   -3.9132    5.6677 H   0  0  0  0  0  0  0  0  0  0  0  0
   -1.9944    2.2924    8.8906 Si  0  0  0  0  0  4  0  0  0  0  0  0
   -3.1966   -2.8180    4.6107 Si  0  0  0  0  0  4  0  0  0  0  0  0
   -3.9579    3.0804    8.2298 Si  0  0  0  0  0  4  0  0  0  0  0  0
   -4.4150   -1.0409    5.0650 Si  0  0  0  0  0  4  0  0  0  0  0  0
   -0.7046    0.1324    7.0887 H   0  0  0  0  0  0  0  0  0  0  0  0
    0.6724    2.0248    7.4061 H   0  0  0  0  0  0  0  0  0  0  0  0
   -1.2788    3.4277    9.5432 H   0  0  0  0  0  0  0  0  0  0  0  0
   -2.1499    1.2688    9.9415 H   0  0  0  0  0  0  0  0  0  0  0  0
   -4.0122    0.1133    4.2352 H   0  0  0  0  0  0  0  0  0  0  0  0
   -5.8468   -1.3052    4.7472 H   0  0  0  0  0  0  0  0  0  0  0  0
   -5.3003    1.5341    7.4260 Si  0  0  0  0  0  4  0  0  0  0  0  0
   -5.8335    2.0301    6.1236 H   0  0  0  0  0  0  0  0  0  0  0  0
   -6.5068    1.3568    8.2850 H   0  0  0  0  0  0  0  0  0  0  0  0
   -4.3204   -0.4436    7.2033 Si  0  0  0  0  0  4  0  0  0  0  0  0
   -5.0431   -1.4905    7.9817 H   0  0  0  0  0  0  0  0  0  0  0  0
   -2.9512   -0.4250    7.7230 H   0  0  0  0  0  0  0  0  0  0  0  0
   -4.6121    3.7002    9.4105 H   0  0  0  0  0  0  0  0  0  0  0  0
   -3.7171    4.1794    7.2779 H   0  0  0  0  0  0  0  0  0  0  0  0
   -2.6707   -2.6714    3.2231 H   0  0  0  0  0  0  0  0  0  0  0  0
   -4.0841   -4.0136    4.5579 H   0  0  0  0  0  0  0  0  0  0  0  0
   -1.5156   -2.1436    7.1016 H   0  0  0  0  0  0  0  0  0  0  0  0
   -1.6794   -4.4553    6.6470 H   0  0  0  0  0  0  0  0  0  0  0  0
   -2.7161    2.0229    4.9014 H   0  0  0  0  0  0  0  0  0  0  0  0
   -1.4370    4.0048    5.5120 H   0  0  0  0  0  0  0  0  0  0  0  0
  1  2  1  0
  1  5  1  0
  2  3  1  0
  2  4  1  0
  2 11  1  0
  5  6  1  0
  5  7  1  0
  5  8  1  0
  8  9  1  0
  8 36  1  0
  8 37  1  0
  9 14  1  0
  9 18  1  0
  9 19  1  0
 10 11  1  0
 10 15  1  0
 10 34  1  0
 10 35  1  0
 11 12  1  0
 11 13  1  0
 14 16  1  0
 14 20  1  0
 14 21  1  0
 15 17  1  0
 15 32  1  0
 15 33  1  0
 16 24  1  0
 16 30  1  0
 16 31  1  0
 17 22  1  0
 17 23  1  0
 17 27  1  0
 24 25  1  0
 24 26  1  0
 24 27  1  0
 27 28  1  0
 27 29  1  0
M  CHG  1   1   1
M  RAD  1   1   2
M  END
$$$$

     RDKit          3D

 37 37  0  0  0  0  0  0  0  0999 V2000
    0.0000    0.0026    3.1942 S   0  0  0  0  0  2  0  0  0  0  0  0
   -1.3344   -1.4723    3.9707 Si  0  0  0  0  0  4  0  0  0  0  0  0
   -0.7238   -2.8018    3.6965 H   0  0  0  0  0  0  0  0  0  0  0  0
   -2.6305   -1.4424    3.2727 H   0  0  0  0  0  0  0  0  0  0  0  0
    0.7249    1.3253    4.6824 Si  0  0  0  0  0  4  0  0  0  0  0  0
    0.5143    2.7252    4.2372 H   0  0  0  0  0  0  0  0  0  0  0  0
    0.0287    1.1931    5.9679 H   0  0  0  0  0  0  0  0  0  0  0  0
    2.9278    1.0914    5.0188 Si  0  0  0  0  0  4  0  0  0  0  0  0
    3.3655    1.8060    7.0955 Si  0  0  0  0  0  4  0  0  0  0  0  0
   -3.4388   -0.0620    6.6524 Si  0  0  0  0  0  4  0  0  0  0  0  0
   -1.6340   -1.2959    6.1486 Si  0  0  0  0  0  4  0  0  0  0  0  0
   -0.4758   -0.6243    6.7455 H   0  0  0  0  0  0  0  0  0  0  0  0
   -1.8172   -2.6020    6.8068 H   0  0  0  0  0  0  0  0  0  0  0  0
    4.0234    0.1197    8.3759 Si  0  0  0  0  0  4  0  0  0  0  0  0
   -3.6189   -0.0092    8.8745 Si  0  0  0  0  0  4  0  0  0  0  0  0
    2.2741   -0.9502    9.2906 Si  0  0  0  0  0  4  0  0  0  0  0  0
   -1.8340   -0.9509    9.8526 Si  0  0  0  0  0  4  0  0  0  0  0  0
    4.4733    2.7872    7.0178 H   0  0  0  0  0  0  0  0  0  0  0  0
    2.2120    2.5247    7.6691 H   0  0  0  0  0  0  0  0  0  0  0  0
    4.9452    0.6037    9.4012 H   0  0  0  0  0  0  0  0  0  0  0  0
    4.7798   -0.8386    7.5381 H   0  0  0  0  0  0  0  0  0  0  0  0
   -1.0226   -1.6972    8.8868 H   0  0  0  0  0  0  0  0  0  0  0  0
   -2.3443   -1.9192   10.8406 H   0  0  0  0  0  0  0  0  0  0  0  0
    1.4824    0.1354   11.0485 Si  0  0  0  0  0  4  0  0  0  0  0  0
    2.2323    1.4188   11.1592 H   0  0  0  0  0  0  0  0  0  0  0  0
    1.7357   -0.6053   12.3098 H   0  0  0  0  0  0  0  0  0  0  0  0
   -0.6628    0.6098   10.8876 Si  0  0  0  0  0  4  0  0  0  0  0  0
   -0.8669    1.8905   10.2035 H   0  0  0  0  0  0  0  0  0  0  0  0
   -1.2092    0.7495   12.2659 H   0  0  0  0  0  0  0  0  0  0  0  0
    1.2773   -1.2126    8.2760 H   0  0  0  0  0  0  0  0  0  0  0  0
    2.7903   -2.2617    9.7597 H   0  0  0  0  0  0  0  0  0  0  0  0
   -4.8595   -0.7177    9.2373 H   0  0  0  0  0  0  0  0  0  0  0  0
   -3.7555    1.3862    9.3395 H   0  0  0  0  0  0  0  0  0  0  0  0
   -4.6395   -0.6475    6.0215 H   0  0  0  0  0  0  0  0  0  0  0  0
   -3.1950    1.2984    6.1291 H   0  0  0  0  0  0  0  0  0  0  0  0
    3.3491   -0.3032    4.9118 H   0  0  0  0  0  0  0  0  0  0  0  0
    3.7032    1.8539    4.0172 H   0  0  0  0  0  0  0  0  0  0  0  0
  1  2  1  0
  1  5  1  0
  2  3  1  0
  2  4  1  0
  2 11  1  0
  5  6  1  0
  5  7  1  0
  5  8  1  0
  8  9  1  0
  8 36  1  0
  8 37  1  0
  9 14  1  0
  9 18  1  0
  9 19  1  0
 10 11  1  0
 10 15  1  0
 10 34  1  0
 10 35  1  0
 11 12  1  0
 11 13  1  0
 14 16  1  0
 14 20  1  0
 14 21  1  0
 15 17  1  0
 15 32  1  0
 15 33  1  0
 16 24  1  0
 16 30  1  0
 16 31  1  0
 17 22  1  0
 17 23  1  0
 17 27  1  0
 24 25  1  0
 24 26  1  0
 24 27  1  0
 27 28  1  0
 27 29  1  0
M  CHG  1   1   1
M  RAD  1   1   2
M  END
$$$$

     RDKit          3D

 37 37  0  0  0  0  0  0  0  0999 V2000
    0.0000    0.0026    3.1942 S   0  0  0  0  0  2  0  0  0  0  0  0
    1.3924    0.3458    4.7691 Si  0  0  0  0  0  4  0  0  0  0  0  0
    2.4817    1.2513    4.3484 H   0  0  0  0  0  0  0  0  0  0  0  0
    2.0424   -0.9584    5.0809 H   0  0  0  0  0  0  0  0  0  0  0  0
   -1.9922   -0.2819    3.9191 Si  0  0  0  0  0  4  0  0  0  0  0  0
   -2.3016    0.6879    4.9952 H   0  0  0  0  0  0  0  0  0  0  0  0
   -2.9204   -0.0023    2.8219 H   0  0  0  0  0  0  0  0  0  0  0  0
   -2.2981   -2.3870    4.6248 Si  0  0  0  0  0  4  0  0  0  0  0  0
   -0.3646   -3.4848    4.5519 Si  0  0  0  0  0  4  0  0  0  0  0  0
    1.1316    0.0485    8.3561 Si  0  0  0  0  0  4  0  0  0  0  0  0
    0.4414    1.2141    6.5744 Si  0  0  0  0  0  4  0  0  0  0  0  0
    0.8902    2.6179    6.7864 H   0  0  0  0  0  0  0  0  0  0  0  0
   -1.0149    1.2528    6.4937 H   0  0  0  0  0  0  0  0  0  0  0  0
   -0.6409   -5.6751    4.7197 Si  0  0  0  0  0  4  0  0  0  0  0  0
   -0.4602   -0.0384    9.9167 Si  0  0  0  0  0  4  0  0  0  0  0  0
   -1.4225   -6.3914    6.6062 Si  0  0  0  0  0  4  0  0  0  0  0  0
   -2.0535   -1.4341    9.1446 Si  0  0  0  0  0  4  0  0  0  0  0  0
    0.6109   -2.9575    5.4945 H   0  0  0  0  0  0  0  0  0  0  0  0
    0.2018   -3.2384    3.1923 H   0  0  0  0  0  0  0  0  0  0  0  0
    0.6831   -6.3014    4.4464 H   0  0  0  0  0  0  0  0  0  0  0  0
   -1.5090   -6.1050    3.5891 H   0  0  0  0  0  0  0  0  0  0  0  0
   -2.6499   -0.8432    7.9491 H   0  0  0  0  0  0  0  0  0  0  0  0
   -3.0006   -1.6645   10.2216 H   0  0  0  0  0  0  0  0  0  0  0  0
   -2.4320   -4.8681    7.8645 Si  0  0  0  0  0  4  0  0  0  0  0  0
   -3.0116   -5.6102    9.0255 H   0  0  0  0  0  0  0  0  0  0  0  0
   -3.5837   -4.2623    7.1825 H   0  0  0  0  0  0  0  0  0  0  0  0
   -1.0292   -3.3737    8.6913 Si  0  0  0  0  0  4  0  0  0  0  0  0
   -0.4853   -3.8694    9.9896 H   0  0  0  0  0  0  0  0  0  0  0  0
    0.1120   -3.1015    7.8376 H   0  0  0  0  0  0  0  0  0  0  0  0
   -2.4183   -7.4759    6.3626 H   0  0  0  0  0  0  0  0  0  0  0  0
   -0.3649   -7.0194    7.4363 H   0  0  0  0  0  0  0  0  0  0  0  0
   -1.0124    1.2726   10.2172 H   0  0  0  0  0  0  0  0  0  0  0  0
    0.1389   -0.6675   11.1140 H   0  0  0  0  0  0  0  0  0  0  0  0
    1.3435   -1.3495    7.8863 H   0  0  0  0  0  0  0  0  0  0  0  0
    2.3896    0.5689    8.8675 H   0  0  0  0  0  0  0  0  0  0  0  0
   -2.8557   -2.3292    5.9603 H   0  0  0  0  0  0  0  0  0  0  0  0
   -3.2399   -3.0799    3.7193 H   0  0  0  0  0  0  0  0  0  0  0  0
  1  2  1  0
  1  5  1  0
  2  3  1  0
  2  4  1  0
  2 11  1  0
  5  6  1  0
  5  7  1  0
  5  8  1  0
  8  9  1  0
  8 36  1  0
  8 37  1  0
  9 14  1  0
  9 18  1  0
  9 19  1  0
 10 11  1  0
 10 15  1  0
 10 34  1  0
 10 35  1  0
 11 12  1  0
 11 13  1  0
 14 16  1  0
 14 20  1  0
 14 21  1  0
 15 17  1  0
 15 32  1  0
 15 33  1  0
 16 24  1  0
 16 30  1  0
 16 31  1  0
 17 22  1  0
 17 23  1  0
 17 27  1  0
 24 25  1  0
 24 26  1  0
 24 27  1  0
 27 28  1  0
 27 29  1  0
M  CHG  1   1   1
M  RAD  1   1   2
M  END
$$$$

     RDKit          3D

 37 37  0  0  0  0  0  0  0  0999 V2000
    0.0000    0.0026    3.1942 S   0  0  0  0  0  2  0  0  0  0  0  0
    1.4715    1.3421    3.9684 Si  0  0  0  0  0  4  0  0  0  0  0  0
    0.9929    2.7242    3.6919 H   0  0  0  0  0  0  0  0  0  0  0  0
    2.7585    1.1853    3.2705 H   0  0  0  0  0  0  0  0  0  0  0  0
   -0.8498   -1.2409    4.6845 Si  0  0  0  0  0  4  0  0  0  0  0  0
   -0.7763   -2.6554    4.2417 H   0  0  0  0  0  0  0  0  0  0  0  0
   -0.1440   -1.1749    5.9699 H   0  0  0  0  0  0  0  0  0  0  0  0
   -3.0196   -0.7936    5.0204 Si  0  0  0  0  0  4  0  0  0  0  0  0
   -3.5244   -1.4588    7.0982 Si  0  0  0  0  0  4  0  0  0  0  0  0
    3.4291   -0.2615    6.6525 Si  0  0  0  0  0  4  0  0  0  0  0  0
    1.7527    1.1411    6.1466 Si  0  0  0  0  0  4  0  0  0  0  0  0
    0.5347    0.5862    6.7445 H   0  0  0  0  0  0  0  0  0  0  0  0
    2.0620    2.4243    6.8026 H   0  0  0  0  0  0  0  0  0  0  0  0
   -4.0153    0.2855    8.3758 Si  0  0  0  0  0  4  0  0  0  0  0  0
    3.6034   -0.3278    8.8748 Si  0  0  0  0  0  4  0  0  0  0  0  0
   -2.1703    1.1819    9.2888 Si  0  0  0  0  0  4  0  0  0  0  0  0
    1.9185    0.7845    9.8512 Si  0  0  0  0  0  4  0  0  0  0  0  0
   -4.7224   -2.3279    7.0221 H   0  0  0  0  0  0  0  0  0  0  0  0
   -2.4462   -2.2852    7.6731 H   0  0  0  0  0  0  0  0  0  0  0  0
   -4.9797   -0.1049    9.4018 H   0  0  0  0  0  0  0  0  0  0  0  0
   -4.6751    1.3114    7.5363 H   0  0  0  0  0  0  0  0  0  0  0  0
    1.1834    1.6045    8.8840 H   0  0  0  0  0  0  0  0  0  0  0  0
    2.5205    1.7003   10.8376 H   0  0  0  0  0  0  0  0  0  0  0  0
   -1.4876    0.0275   11.0486 Si  0  0  0  0  0  4  0  0  0  0  0  0
   -2.3586   -1.1767   11.1614 H   0  0  0  0  0  0  0  0  0  0  0  0
   -1.6677    0.7914   12.3087 H   0  0  0  0  0  0  0  0  0  0  0  0
    0.6013   -0.6534   10.8886 Si  0  0  0  0  0  4  0  0  0  0  0  0
    0.6799   -1.9489   10.2067 H   0  0  0  0  0  0  0  0  0  0  0  0
    1.1317   -0.8432   12.2673 H   0  0  0  0  0  0  0  0  0  0  0  0
   -1.1528    1.3446    8.2739 H   0  0  0  0  0  0  0  0  0  0  0  0
   -2.5566    2.5382    9.7556 H   0  0  0  0  0  0  0  0  0  0  0  0
    4.9070    0.2575    9.2365 H   0  0  0  0  0  0  0  0  0  0  0  0
    3.6038   -1.7291    9.3421 H   0  0  0  0  0  0  0  0  0  0  0  0
    4.6809    0.2036    6.0208 H   0  0  0  0  0  0  0  0  0  0  0  0
    3.0542   -1.5926    6.1315 H   0  0  0  0  0  0  0  0  0  0  0  0
   -3.3034    0.6352    4.9110 H   0  0  0  0  0  0  0  0  0  0  0  0
   -3.8655   -1.4788    4.0200 H   0  0  0  0  0  0  0  0  0  0  0  0
  1  2  1  0
  1  5  1  0
  2  3  1  0
  2  4  1  0
  2 11  1  0
  5  6  1  0
  5  7  1  0
  5  8  1  0
  8  9  1  0
  8 36  1  0
  8 37  1  0
  9 14  1  0
  9 18  1  0
  9 19  1  0
 10 11  1  0
 10 15  1  0
 10 34  1  0
 10 35  1  0
 11 12  1  0
 11 13  1  0
 14 16  1  0
 14 20  1  0
 14 21  1  0
 15 17  1  0
 15 32  1  0
 15 33  1  0
 16 24  1  0
 16 30  1  0
 16 31  1  0
 17 22  1  0
 17 23  1  0
 17 27  1  0
 24 25  1  0
 24 26  1  0
 24 27  1  0
 27 28  1  0
 27 29  1  0
M  CHG  1   1   1
M  RAD  1   1   2
M  END
$$$$

     RDKit          3D

 37 37  0  0  0  0  0  0  0  0999 V2000
    0.0000    0.0026    3.1942 S   0  0  0  0  0  2  0  0  0  0  0  0
    1.7193   -0.9977    3.9703 Si  0  0  0  0  0  4  0  0  0  0  0  0
    2.8938   -0.1260    3.6942 H   0  0  0  0  0  0  0  0  0  0  0  0
    1.9571   -2.2727    3.2734 H   0  0  0  0  0  0  0  0  0  0  0  0
   -1.4427    0.4402    4.6831 Si  0  0  0  0  0  4  0  0  0  0  0  0
   -2.7693   -0.0554    4.2395 H   0  0  0  0  0  0  0  0  0  0  0  0
   -1.1685   -0.2124    5.9691 H   0  0  0  0  0  0  0  0  0  0  0  0
   -1.6685    2.6442    5.0175 Si  0  0  0  0  0  4  0  0  0  0  0  0
   -2.4563    2.9270    7.0945 Si  0  0  0  0  0  4  0  0  0  0  0  0
    0.7761   -3.3453    6.6551 Si  0  0  0  0  0  4  0  0  0  0  0  0
    1.6104   -1.3251    6.1486 Si  0  0  0  0  0  4  0  0  0  0  0  0
    0.7145   -0.3299    6.7453 H   0  0  0  0  0  0  0  0  0  0  0  0
    2.9266   -1.2340    6.8057 H   0  0  0  0  0  0  0  0  0  0  0  0
   -0.9413    3.9203    8.3728 Si  0  0  0  0  0  4  0  0  0  0  0  0
    0.7635   -3.5301    8.8774 Si  0  0  0  0  0  4  0  0  0  0  0  0
    0.4676    2.4306    9.2878 Si  0  0  0  0  0  4  0  0  0  0  0  0
    1.3172   -1.5883    9.8531 Si  0  0  0  0  0  4  0  0  0  0  0  0
   -3.6453    3.8083    7.0169 H   0  0  0  0  0  0  0  0  0  0  0  0
   -2.9209    1.6506    7.6698 H   0  0  0  0  0  0  0  0  0  0  0  0
   -1.6043    4.7233    9.3978 H   0  0  0  0  0  0  0  0  0  0  0  0
   -0.1605    4.8574    7.5334 H   0  0  0  0  0  0  0  0  0  0  0  0
    1.8790   -0.6412    8.8859 H   0  0  0  0  0  0  0  0  0  0  0  0
    2.3708   -1.8865   10.8406 H   0  0  0  0  0  0  0  0  0  0  0  0
   -0.4297    1.4335   11.0474 Si  0  0  0  0  0  4  0  0  0  0  0  0
   -1.8401    1.9023   11.1588 H   0  0  0  0  0  0  0  0  0  0  0  0
    0.2438    1.8356   12.3078 H   0  0  0  0  0  0  0  0  0  0  0  0
   -0.4510   -0.7636   10.8887 Si  0  0  0  0  0  4  0  0  0  0  0  0
   -1.6625   -1.2284   10.2061 H   0  0  0  0  0  0  0  0  0  0  0  0
   -0.4737   -1.3257   12.2677 H   0  0  0  0  0  0  0  0  0  0  0  0
    0.9294    1.5085    8.2737 H   0  0  0  0  0  0  0  0  0  0  0  0
    1.6447    3.2069    9.7551 H   0  0  0  0  0  0  0  0  0  0  0  0
    1.7133   -4.5973    9.2405 H   0  0  0  0  0  0  0  0  0  0  0  0
   -0.5733   -3.9515    9.3440 H   0  0  0  0  0  0  0  0  0  0  0  0
    1.5965   -4.3998    6.0246 H   0  0  0  0  0  0  0  0  0  0  0  0
   -0.6057   -3.3882    6.1330 H   0  0  0  0  0  0  0  0  0  0  0  0
   -0.3910    3.3444    4.9087 H   0  0  0  0  0  0  0  0  0  0  0  0
   -2.5755    3.2445    4.0161 H   0  0  0  0  0  0  0  0  0  0  0  0
  1  2  1  0
  1  5  1  0
  2  3  1  0
  2  4  1  0
  2 11  1  0
  5  6  1  0
  5  7  1  0
  5  8  1  0
  8  9  1  0
  8 36  1  0
  8 37  1  0
  9 14  1  0
  9 18  1  0
  9 19  1  0
 10 11  1  0
 10 15  1  0
 10 34  1  0
 10 35  1  0
 11 12  1  0
 11 13  1  0
 14 16  1  0
 14 20  1  0
 14 21  1  0
 15 17  1  0
 15 32  1  0
 15 33  1  0
 16 24  1  0
 16 30  1  0
 16 31  1  0
 17 22  1  0
 17 23  1  0
 17 27  1  0
 24 25  1  0
 24 26  1  0
 24 27  1  0
 27 28  1  0
 27 29  1  0
M  CHG  1   1   1
M  RAD  1   1   2
M  END
$$$$

     RDKit          3D

 37 37  0  0  0  0  0  0  0  0999 V2000
    0.0000    0.0026    3.1942 S   0  0  0  0  0  2  0  0  0  0  0  0
   -1.1066   -1.1826    4.5851 Si  0  0  0  0  0  4  0  0  0  0  0  0
   -0.4486   -1.2865    5.8875 H   0  0  0  0  0  0  0  0  0  0  0  0
   -1.2554   -2.5721    4.0777 H   0  0  0  0  0  0  0  0  0  0  0  0
    2.0976   -0.0737    3.6685 Si  0  0  0  0  0  4  0  0  0  0  0  0
    2.8445    0.2918    2.4646 H   0  0  0  0  0  0  0  0  0  0  0  0
    2.4722   -1.4263    4.1238 H   0  0  0  0  0  0  0  0  0  0  0  0
    2.5621    1.3793    5.2861 Si  0  0  0  0  0  4  0  0  0  0  0  0
    1.6063    0.7282    7.2040 Si  0  0  0  0  0  4  0  0  0  0  0  0
   -3.0986    1.5625    6.0134 Si  0  0  0  0  0  4  0  0  0  0  0  0
   -3.1602   -0.3707    4.8982 Si  0  0  0  0  0  4  0  0  0  0  0  0
   -3.7948   -0.1233    3.5865 H   0  0  0  0  0  0  0  0  0  0  0  0
   -3.9359   -1.3371    5.6655 H   0  0  0  0  0  0  0  0  0  0  0  0
    2.3112    1.9714    8.8909 Si  0  0  0  0  0  4  0  0  0  0  0  0
   -2.7792    3.2373    4.6056 Si  0  0  0  0  0  4  0  0  0  0  0  0
    3.1257    3.9237    8.2291 Si  0  0  0  0  0  4  0  0  0  0  0  0
   -0.9866    4.4326    5.0605 Si  0  0  0  0  0  4  0  0  0  0  0  0
    0.1359    0.7087    7.0882 H   0  0  0  0  0  0  0  0  0  0  0  0
    2.0096   -0.6929    7.4084 H   0  0  0  0  0  0  0  0  0  0  0  0
    3.4364    1.2414    9.5450 H   0  0  0  0  0  0  0  0  0  0  0  0
    1.2889    2.1413    9.9407 H   0  0  0  0  0  0  0  0  0  0  0  0
    0.1629    4.0138    4.2320 H   0  0  0  0  0  0  0  0  0  0  0  0
   -1.2317    5.8675    4.7412 H   0  0  0  0  0  0  0  0  0  0  0  0
    1.5979    5.2858    7.4229 Si  0  0  0  0  0  4  0  0  0  0  0  0
    2.1020    5.8113    6.1204 H   0  0  0  0  0  0  0  0  0  0  0  0
    1.4358    6.4952    8.2807 H   0  0  0  0  0  0  0  0  0  0  0  0
   -0.3924    4.3319    7.1993 Si  0  0  0  0  0  4  0  0  0  0  0  0
   -1.4303    5.0690    7.9762 H   0  0  0  0  0  0  0  0  0  0  0  0
   -0.3923    2.9630    7.7201 H   0  0  0  0  0  0  0  0  0  0  0  0
    3.7530    4.5707    9.4098 H   0  0  0  0  0  0  0  0  0  0  0  0
    4.2221    3.6676    7.2783 H   0  0  0  0  0  0  0  0  0  0  0  0
   -2.6385    2.7084    3.2186 H   0  0  0  0  0  0  0  0  0  0  0  0
   -3.9630    4.1406    4.5511 H   0  0  0  0  0  0  0  0  0  0  0  0
   -2.1292    1.5498    7.0985 H   0  0  0  0  0  0  0  0  0  0  0  0
   -4.4382    1.7437    6.6418 H   0  0  0  0  0  0  0  0  0  0  0  0
    2.0546    2.6932    4.9009 H   0  0  0  0  0  0  0  0  0  0  0  0
    4.0190    1.3886    5.5142 H   0  0  0  0  0  0  0  0  0  0  0  0
  1  2  1  0
  1  5  1  0
  2  3  1  0
  2  4  1  0
  2 11  1  0
  5  6  1  0
  5  7  1  0
  5  8  1  0
  8  9  1  0
  8 36  1  0
  8 37  1  0
  9 14  1  0
  9 18  1  0
  9 19  1  0
 10 11  1  0
 10 15  1  0
 10 34  1  0
 10 35  1  0
 11 12  1  0
 11 13  1  0
 14 16  1  0
 14 20  1  0
 14 21  1  0
 15 17  1  0
 15 32  1  0
 15 33  1  0
 16 24  1  0
 16 30  1  0
 16 31  1  0
 17 22  1  0
 17 23  1  0
 17 27  1  0
 24 25  1  0
 24 26  1  0
 24 27  1  0
 27 28  1  0
 27 29  1  0
M  CHG  1   1   1
M  RAD  1   1   2
M  END
$$$$

     RDKit          3D

 37 37  0  0  0  0  0  0  0  0999 V2000
    0.0000    0.0026    3.1942 S   0  0  0  0  0  2  0  0  0  0  0  0
   -0.6053    1.8100    4.1017 Si  0  0  0  0  0  4  0  0  0  0  0  0
    0.5314    2.6695    4.4000 H   0  0  0  0  0  0  0  0  0  0  0  0
   -1.4641    2.5510    3.1416 H   0  0  0  0  0  0  0  0  0  0  0  0
    2.0837   -0.3234    3.2113 Si  0  0  0  0  0  4  0  0  0  0  0  0
    2.5975   -0.1368    1.8367 H   0  0  0  0  0  0  0  0  0  0  0  0
    2.3958   -1.7290    3.5693 H   0  0  0  0  0  0  0  0  0  0  0  0
    3.1994    1.0348    4.5407 Si  0  0  0  0  0  4  0  0  0  0  0  0
    2.8178    0.7032    6.6836 Si  0  0  0  0  0  4  0  0  0  0  0  0
   -3.5155    0.1647    5.6612 Si  0  0  0  0  0  4  0  0  0  0  0  0
   -1.7793    1.5134    5.9582 Si  0  0  0  0  0  4  0  0  0  0  0  0
   -2.3185    2.8444    6.3595 H   0  0  0  0  0  0  0  0  0  0  0  0
   -0.9801    1.0316    7.0669 H   0  0  0  0  0  0  0  0  0  0  0  0
    4.0244   -0.9358    7.5480 Si  0  0  0  0  0  4  0  0  0  0  0  0
   -2.9493   -1.7541    4.7164 Si  0  0  0  0  0  4  0  0  0  0  0  0
    3.3768   -2.9393    6.8625 Si  0  0  0  0  0  4  0  0  0  0  0  0
   -1.9882   -3.1409    6.2175 Si  0  0  0  0  0  4  0  0  0  0  0  0
    3.2140    1.9509    7.4035 H   0  0  0  0  0  0  0  0  0  0  0  0
    1.3833    0.5266    6.9862 H   0  0  0  0  0  0  0  0  0  0  0  0
    5.4188   -0.7295    7.2174 H   0  0  0  0  0  0  0  0  0  0  0  0
    3.8622   -0.8902    9.0232 H   0  0  0  0  0  0  0  0  0  0  0  0
   -1.6001   -4.3417    5.4902 H   0  0  0  0  0  0  0  0  0  0  0  0
   -2.9651   -3.3951    7.2712 H   0  0  0  0  0  0  0  0  0  0  0  0
    1.3678   -3.4816    7.7253 Si  0  0  0  0  0  4  0  0  0  0  0  0
    1.4841   -3.2928    9.1861 H   0  0  0  0  0  0  0  0  0  0  0  0
    1.0825   -4.8810    7.4172 H   0  0  0  0  0  0  0  0  0  0  0  0
   -0.1733   -2.0912    6.9699 Si  0  0  0  0  0  4  0  0  0  0  0  0
   -0.5997   -1.1449    8.0038 H   0  0  0  0  0  0  0  0  0  0  0  0
    0.3819   -1.3359    5.8517 H   0  0  0  0  0  0  0  0  0  0  0  0
    4.3328   -3.9314    7.3682 H   0  0  0  0  0  0  0  0  0  0  0  0
    3.2601   -3.0157    5.4014 H   0  0  0  0  0  0  0  0  0  0  0  0
   -2.0365   -1.5462    3.5691 H   0  0  0  0  0  0  0  0  0  0  0  0
   -4.1879   -2.3891    4.1970 H   0  0  0  0  0  0  0  0  0  0  0  0
   -4.5781    0.8219    4.8673 H   0  0  0  0  0  0  0  0  0  0  0  0
   -4.0957   -0.1258    6.9828 H   0  0  0  0  0  0  0  0  0  0  0  0
    2.9141    2.4391    4.1898 H   0  0  0  0  0  0  0  0  0  0  0  0
    4.6455    0.8348    4.2862 H   0  0  0  0  0  0  0  0  0  0  0  0
  1  2  1  0
  1  5  1  0
  2  3  1  0
  2  4  1  0
  2 11  1  0
  5  6  1  0
  5  7  1  0
  5  8  1  0
  8  9  1  0
  8 36  1  0
  8 37  1  0
  9 14  1  0
  9 18  1  0
  9 19  1  0
 10 11  1  0
 10 15  1  0
 10 34  1  0
 10 35  1  0
 11 12  1  0
 11 13  1  0
 14 16  1  0
 14 20  1  0
 14 21  1  0
 15 17  1  0
 15 32  1  0
 15 33  1  0
 16 24  1  0
 16 30  1  0
 16 31  1  0
 17 22  1  0
 17 23  1  0
 17 27  1  0
 24 25  1  0
 24 26  1  0
 24 27  1  0
 27 28  1  0
 27 29  1  0
M  CHG  1   1   1
M  RAD  1   1   2
M  END
$$$$

     RDKit          3D

 37 37  0  0  0  0  0  0  0  0999 V2000
    0.0000    0.0026    3.1942 S   0  0  0  0  0  2  0  0  0  0  0  0
    1.4604    0.4081    4.7290 Si  0  0  0  0  0  4  0  0  0  0  0  0
    2.5828    1.1151    4.0503 H   0  0  0  0  0  0  0  0  0  0  0  0
    1.9421   -0.8484    5.2919 H   0  0  0  0  0  0  0  0  0  0  0  0
   -1.9553    0.6456    3.8071 Si  0  0  0  0  0  4  0  0  0  0  0  0
   -2.1008    0.2824    5.2412 H   0  0  0  0  0  0  0  0  0  0  0  0
   -3.0006   -0.0520    3.0832 H   0  0  0  0  0  0  0  0  0  0  0  0
   -2.1521    2.8810    3.5958 Si  0  0  0  0  0  4  0  0  0  0  0  0
   -3.3165    3.7499    5.2622 Si  0  0  0  0  0  4  0  0  0  0  0  0
    1.7583    2.1831    7.9537 Si  0  0  0  0  0  4  0  0  0  0  0  0
    0.4863    1.7148    6.2419 Si  0  0  0  0  0  4  0  0  0  0  0  0
    0.1101    2.9710    5.5328 H   0  0  0  0  0  0  0  0  0  0  0  0
   -0.7673    1.0536    6.6581 H   0  0  0  0  0  0  0  0  0  0  0  0
   -2.1290    5.2155    6.4510 Si  0  0  0  0  0  4  0  0  0  0  0  0
    1.4262    0.9259    9.7208 Si  0  0  0  0  0  4  0  0  0  0  0  0
   -2.4399    4.7928    8.6336 Si  0  0  0  0  0  4  0  0  0  0  0  0
   -0.6310    0.1623    9.9209 Si  0  0  0  0  0  4  0  0  0  0  0  0
   -4.5230    4.4762    4.7701 H   0  0  0  0  0  0  0  0  0  0  0  0
   -3.8390    2.6563    6.1112 H   0  0  0  0  0  0  0  0  0  0  0  0
   -0.6964    5.1546    6.1213 H   0  0  0  0  0  0  0  0  0  0  0  0
   -2.5682    6.5969    6.2042 H   0  0  0  0  0  0  0  0  0  0  0  0
   -1.1433   -0.4528    8.7100 H   0  0  0  0  0  0  0  0  0  0  0  0
   -0.6180   -0.8989   10.9690 H   0  0  0  0  0  0  0  0  0  0  0  0
   -3.0930    2.6742    8.8780 Si  0  0  0  0  0  4  0  0  0  0  0  0
   -2.7566    1.9271    7.6796 H   0  0  0  0  0  0  0  0  0  0  0  0
   -4.5703    2.6181    9.0257 H   0  0  0  0  0  0  0  0  0  0  0  0
   -2.0632    1.7257   10.6095 Si  0  0  0  0  0  4  0  0  0  0  0  0
   -1.4220    2.7206   11.4768 H   0  0  0  0  0  0  0  0  0  0  0  0
   -3.1144    1.0734   11.4415 H   0  0  0  0  0  0  0  0  0  0  0  0
   -3.5186    5.6541    9.1601 H   0  0  0  0  0  0  0  0  0  0  0  0
   -1.2373    5.0841    9.4142 H   0  0  0  0  0  0  0  0  0  0  0  0
    2.3644   -0.2275    9.7148 H   0  0  0  0  0  0  0  0  0  0  0  0
    1.7506    1.7135   10.9345 H   0  0  0  0  0  0  0  0  0  0  0  0
    3.1891    2.0997    7.5565 H   0  0  0  0  0  0  0  0  0  0  0  0
    1.5428    3.6068    8.3413 H   0  0  0  0  0  0  0  0  0  0  0  0
   -2.9271    3.0992    2.3415 H   0  0  0  0  0  0  0  0  0  0  0  0
   -0.8553    3.5084    3.3990 H   0  0  0  0  0  0  0  0  0  0  0  0
  1  2  1  0
  1  5  1  0
  2  3  1  0
  2  4  1  0
  2 11  1  0
  5  6  1  0
  5  7  1  0
  5  8  1  0
  8  9  1  0
  8 36  1  0
  8 37  1  0
  9 14  1  0
  9 18  1  0
  9 19  1  0
 10 11  1  0
 10 15  1  0
 10 34  1  0
 10 35  1  0
 11 12  1  0
 11 13  1  0
 14 16  1  0
 14 20  1  0
 14 21  1  0
 15 17  1  0
 15 32  1  0
 15 33  1  0
 16 24  1  0
 16 30  1  0
 16 31  1  0
 17 22  1  0
 17 23  1  0
 17 27  1  0
 24 25  1  0
 24 26  1  0
 24 27  1  0
 27 28  1  0
 27 29  1  0
M  CHG  1   1   1
M  RAD  1   1   2
M  END
$$$$

     RDKit          3D

 37 37  0  0  0  0  0  0  0  0999 V2000
    0.0000    0.0026    3.1942 S   0  0  0  0  0  2  0  0  0  0  0  0
   -1.8588   -0.4153    4.1036 Si  0  0  0  0  0  4  0  0  0  0  0  0
   -2.5981    0.8030    4.4016 H   0  0  0  0  0  0  0  0  0  0  0  0
   -2.6840   -1.1951    3.1447 H   0  0  0  0  0  0  0  0  0  0  0  0
    0.5360    2.0424    3.2094 Si  0  0  0  0  0  4  0  0  0  0  0  0
    0.4014    2.5714    1.8345 H   0  0  0  0  0  0  0  0  0  0  0  0
    1.9663    2.2103    3.5660 H   0  0  0  0  0  0  0  0  0  0  0  0
   -0.7008    3.2913    4.5388 Si  0  0  0  0  0  4  0  0  0  0  0  0
   -0.4079    2.8796    6.6818 Si  0  0  0  0  0  4  0  0  0  0  0  0
   -0.5164   -3.4764    5.6642 Si  0  0  0  0  0  4  0  0  0  0  0  0
   -1.6815   -1.6119    5.9608 Si  0  0  0  0  0  4  0  0  0  0  0  0
   -3.0600   -2.0128    6.3635 H   0  0  0  0  0  0  0  0  0  0  0  0
   -1.1200   -0.8650    7.0685 H   0  0  0  0  0  0  0  0  0  0  0  0
    1.3460    3.9141    7.5439 Si  0  0  0  0  0  4  0  0  0  0  0  0
    1.4493   -3.1088    4.7175 Si  0  0  0  0  0  4  0  0  0  0  0  0
    3.2728    3.0658    6.8574 Si  0  0  0  0  0  4  0  0  0  0  0  0
    2.9277   -2.2924    6.2167 Si  0  0  0  0  0  4  0  0  0  0  0  0
   -1.6083    3.4010    7.4023 H   0  0  0  0  0  0  0  0  0  0  0  0
   -0.3776    1.4348    6.9854 H   0  0  0  0  0  0  0  0  0  0  0  0
    1.2821    5.3220    7.2124 H   0  0  0  0  0  0  0  0  0  0  0  0
    1.2853    3.7585    9.0193 H   0  0  0  0  0  0  0  0  0  0  0  0
    4.1611   -2.0288    5.4883 H   0  0  0  0  0  0  0  0  0  0  0  0
    3.0823   -3.2893    7.2711 H   0  0  0  0  0  0  0  0  0  0  0  0
    3.6088    1.0128    7.7215 Si  0  0  0  0  0  4  0  0  0  0  0  0
    3.4341    1.1488    9.1824 H   0  0  0  0  0  0  0  0  0  0  0  0
    4.9718    0.5865    7.4126 H   0  0  0  0  0  0  0  0  0  0  0  0
    2.0685   -0.3797    6.9684 Si  0  0  0  0  0  4  0  0  0  0  0  0
    1.0846   -0.7070    8.0035 H   0  0  0  0  0  0  0  0  0  0  0  0
    1.3726    0.2485    5.8504 H   0  0  0  0  0  0  0  0  0  0  0  0
    4.3573    3.9164    7.3616 H   0  0  0  0  0  0  0  0  0  0  0  0
    3.3356    2.9408    5.3964 H   0  0  0  0  0  0  0  0  0  0  0  0
    1.3342   -2.1805    3.5697 H   0  0  0  0  0  0  0  0  0  0  0  0
    1.9548   -4.4059    4.1987 H   0  0  0  0  0  0  0  0  0  0  0  0
   -1.2787   -4.4673    4.8717 H   0  0  0  0  0  0  0  0  0  0  0  0
   -0.2852   -4.0822    6.9861 H   0  0  0  0  0  0  0  0  0  0  0  0
   -2.1271    3.1498    4.1892 H   0  0  0  0  0  0  0  0  0  0  0  0
   -0.3551    4.7094    4.2829 H   0  0  0  0  0  0  0  0  0  0  0  0
  1  2  1  0
  1  5  1  0
  2  3  1  0
  2  4  1  0
  2 11  1  0
  5  6  1  0
  5  7  1  0
  5  8  1  0
  8  9  1  0
  8 36  1  0
  8 37  1  0
  9 14  1  0
  9 18  1  0
  9 19  1  0
 10 11  1  0
 10 15  1  0
 10 34  1  0
 10 35  1  0
 11 12  1  0
 11 13  1  0
 14 16  1  0
 14 20  1  0
 14 21  1  0
 15 17  1  0
 15 32  1  0
 15 33  1  0
 16 24  1  0
 16 30  1  0
 16 31  1  0
 17 22  1  0
 17 23  1  0
 17 27  1  0
 24 25  1  0
 24 26  1  0
 24 27  1  0
 27 28  1  0
 27 29  1  0
M  CHG  1   1   1
M  RAD  1   1   2
M  END
$$$$

     RDKit          3D

 37 37  0  0  0  0  0  0  0  0999 V2000
    0.0000    0.0026    3.1942 S   0  0  0  0  0  2  0  0  0  0  0  0
    0.8961    1.1232    4.7684 Si  0  0  0  0  0  4  0  0  0  0  0  0
    1.2081    2.5048    4.3473 H   0  0  0  0  0  0  0  0  0  0  0  0
    2.2061    0.4848    5.0797 H   0  0  0  0  0  0  0  0  0  0  0  0
   -1.4064   -1.4364    3.9201 Si  0  0  0  0  0  4  0  0  0  0  0  0
   -2.2419   -0.8555    4.9965 H   0  0  0  0  0  0  0  0  0  0  0  0
   -2.3133   -1.7802    2.8234 H   0  0  0  0  0  0  0  0  0  0  0  0
   -0.3663   -3.2921    4.6255 Si  0  0  0  0  0  4  0  0  0  0  0  0
    1.8357   -2.9851    4.5515 Si  0  0  0  0  0  4  0  0  0  0  0  0
    0.8721    0.7291    8.3555 Si  0  0  0  0  0  4  0  0  0  0  0  0
   -0.3862    1.2328    6.5744 Si  0  0  0  0  0  4  0  0  0  0  0  0
   -0.8852    2.6196    6.7864 H   0  0  0  0  0  0  0  0  0  0  0  0
   -1.5648    0.3765    6.4944 H   0  0  0  0  0  0  0  0  0  0  0  0
    2.9508   -4.8904    4.7190 Si  0  0  0  0  0  4  0  0  0  0  0  0
   -0.3366   -0.3091    9.9170 Si  0  0  0  0  0  4  0  0  0  0  0  0
    2.7683   -5.9343    6.6058 Si  0  0  0  0  0  4  0  0  0  0  0  0
   -0.7505   -2.3866    9.1454 Si  0  0  0  0  0  4  0  0  0  0  0  0
    2.2887   -1.9725    5.4937 H   0  0  0  0  0  0  0  0  0  0  0  0
    2.1341   -2.4449    3.1916 H   0  0  0  0  0  0  0  0  0  0  0  0
    4.3822   -4.5807    4.4450 H   0  0  0  0  0  0  0  0  0  0  0  0
    2.5236   -5.7603    3.5888 H   0  0  0  0  0  0  0  0  0  0  0  0
   -1.5839   -2.2815    7.9503 H   0  0  0  0  0  0  0  0  0  0  0  0
   -1.3608   -3.1460   10.2229 H   0  0  0  0  0  0  0  0  0  0  0  0
    1.0404   -5.3408    7.8649 Si  0  0  0  0  0  4  0  0  0  0  0  0
    1.0334   -6.2822    9.0260 H   0  0  0  0  0  0  0  0  0  0  0  0
   -0.2424   -5.5620    7.1836 H   0  0  0  0  0  0  0  0  0  0  0  0
    1.2431   -3.3010    8.6912 Si  0  0  0  0  0  4  0  0  0  0  0  0
    1.9770   -3.3626    9.9892 H   0  0  0  0  0  0  0  0  0  0  0  0
    1.9819   -2.3902    7.8370 H   0  0  0  0  0  0  0  0  0  0  0  0
    2.6389   -7.4010    6.3626 H   0  0  0  0  0  0  0  0  0  0  0  0
    3.9900   -5.7880    7.4353 H   0  0  0  0  0  0  0  0  0  0  0  0
   -1.5729    0.3944   10.2180 H   0  0  0  0  0  0  0  0  0  0  0  0
    0.5223   -0.4429   11.1138 H   0  0  0  0  0  0  0  0  0  0  0  0
    1.8915   -0.2506    7.8854 H   0  0  0  0  0  0  0  0  0  0  0  0
    1.5531    1.9082    8.8663 H   0  0  0  0  0  0  0  0  0  0  0  0
   -0.8431   -3.5856    5.9613 H   0  0  0  0  0  0  0  0  0  0  0  0
   -0.6916   -4.4154    3.7205 H   0  0  0  0  0  0  0  0  0  0  0  0
  1  2  1  0
  1  5  1  0
  2  3  1  0
  2  4  1  0
  2 11  1  0
  5  6  1  0
  5  7  1  0
  5  8  1  0
  8  9  1  0
  8 36  1  0
  8 37  1  0
  9 14  1  0
  9 18  1  0
  9 19  1  0
 10 11  1  0
 10 15  1  0
 10 34  1  0
 10 35  1  0
 11 12  1  0
 11 13  1  0
 14 16  1  0
 14 20  1  0
 14 21  1  0
 15 17  1  0
 15 32  1  0
 15 33  1  0
 16 24  1  0
 16 30  1  0
 16 31  1  0
 17 22  1  0
 17 23  1  0
 17 27  1  0
 24 25  1  0
 24 26  1  0
 24 27  1  0
 27 28  1  0
 27 29  1  0
M  CHG  1   1   1
M  RAD  1   1   2
M  END
$$$$

     RDKit          3D

 37 37  0  0  0  0  0  0  0  0999 V2000
    0.0000    0.0026    3.1942 S   0  0  0  0  0  2  0  0  0  0  0  0
   -0.2538    1.4978    4.7281 Si  0  0  0  0  0  4  0  0  0  0  0  0
   -0.8437    2.6856    4.0490 H   0  0  0  0  0  0  0  0  0  0  0  0
    1.0456    1.8498    5.2896 H   0  0  0  0  0  0  0  0  0  0  0  0
   -0.8378   -1.8768    3.8092 Si  0  0  0  0  0  4  0  0  0  0  0  0
   -0.4901   -2.0574    5.2431 H   0  0  0  0  0  0  0  0  0  0  0  0
   -0.2507   -2.9882    3.0857 H   0  0  0  0  0  0  0  0  0  0  0  0
   -3.0818   -1.8457    3.5997 Si  0  0  0  0  0  4  0  0  0  0  0  0
   -4.0631   -2.9146    5.2677 Si  0  0  0  0  0  4  0  0  0  0  0  0
   -1.9867    1.9768    7.9539 Si  0  0  0  0  0  4  0  0  0  0  0  0
   -1.6515    0.6626    6.2428 Si  0  0  0  0  0  4  0  0  0  0  0  0
   -2.9400    0.4154    5.5350 H   0  0  0  0  0  0  0  0  0  0  0  0
   -1.1206   -0.6514    6.6595 H   0  0  0  0  0  0  0  0  0  0  0  0
   -5.3995   -1.5834    6.4567 Si  0  0  0  0  0  4  0  0  0  0  0  0
   -0.7682    1.5201    9.7203 Si  0  0  0  0  0  4  0  0  0  0  0  0
   -5.0088   -1.9340    8.6393 Si  0  0  0  0  0  4  0  0  0  0  0  0
   -0.2174   -0.6038    9.9215 Si  0  0  0  0  0  4  0  0  0  0  0  0
   -4.9086   -4.0414    4.7772 H   0  0  0  0  0  0  0  0  0  0  0  0
   -3.0276   -3.5448    6.1164 H   0  0  0  0  0  0  0  0  0  0  0  0
   -5.1937   -0.1647    6.1258 H   0  0  0  0  0  0  0  0  0  0  0  0
   -6.8186   -1.8802    6.2113 H   0  0  0  0  0  0  0  0  0  0  0  0
    0.3415   -1.1770    8.7106 H   0  0  0  0  0  0  0  0  0  0  0  0
    0.8405   -0.6979   10.9688 H   0  0  0  0  0  0  0  0  0  0  0  0
   -2.9673   -2.7988    8.8826 Si  0  0  0  0  0  4  0  0  0  0  0  0
   -2.1909   -2.5409    7.6833 H   0  0  0  0  0  0  0  0  0  0  0  0
   -3.0614   -4.2740    9.0314 H   0  0  0  0  0  0  0  0  0  0  0  0
   -1.9176   -1.8694   10.6125 Si  0  0  0  0  0  4  0  0  0  0  0  0
   -2.8415   -1.1297   11.4800 H   0  0  0  0  0  0  0  0  0  0  0  0
   -1.3748   -2.9807   11.4449 H   0  0  0  0  0  0  0  0  0  0  0  0
   -5.9748   -2.9192    9.1673 H   0  0  0  0  0  0  0  0  0  0  0  0
   -5.1757   -0.7074    9.4190 H   0  0  0  0  0  0  0  0  0  0  0  0
    0.4745    2.3363    9.7126 H   0  0  0  0  0  0  0  0  0  0  0  0
   -1.5178    1.9237   10.9343 H   0  0  0  0  0  0  0  0  0  0  0  0
   -1.7587    3.3915    7.5554 H   0  0  0  0  0  0  0  0  0  0  0  0
   -3.4246    1.9074    8.3428 H   0  0  0  0  0  0  0  0  0  0  0  0
   -3.3787   -2.5955    2.3462 H   0  0  0  0  0  0  0  0  0  0  0  0
   -3.5744   -0.4920    3.4024 H   0  0  0  0  0  0  0  0  0  0  0  0
  1  2  1  0
  1  5  1  0
  2  3  1  0
  2  4  1  0
  2 11  1  0
  5  6  1  0
  5  7  1  0
  5  8  1  0
  8  9  1  0
  8 36  1  0
  8 37  1  0
  9 14  1  0
  9 18  1  0
  9 19  1  0
 10 11  1  0
 10 15  1  0
 10 34  1  0
 10 35  1  0
 11 12  1  0
 11 13  1  0
 14 16  1  0
 14 20  1  0
 14 21  1  0
 15 17  1  0
 15 32  1  0
 15 33  1  0
 16 24  1  0
 16 30  1  0
 16 31  1  0
 17 22  1  0
 17 23  1  0
 17 27  1  0
 24 25  1  0
 24 26  1  0
 24 27  1  0
 27 28  1  0
 27 29  1  0
M  CHG  1   1   1
M  RAD  1   1   2
M  END
$$$$
