
     RDKit          3D

 37 37  0  0  0  0  0  0  0  0999 V2000
   -2.7466    1.4232   -2.8967 S   0  0  0  0  0  2  0  0  0  0  0  0
   -4.8882    1.4772   -3.2290 Si  0  0  0  0  0  4  0  0  0  0  0  0
   -5.3132    0.1254   -3.6300 H   0  0  0  0  0  0  0  0  0  0  0  0
   -5.5919    1.9392   -2.0285 H   0  0  0  0  0  0  0  0  0  0  0  0
   -1.8349    0.6862   -4.6659 Si  0  0  0  0  0  4  0  0  0  0  0  0
   -2.8239   -0.0927   -5.4548 H   0  0  0  0  0  0  0  0  0  0  0  0
   -0.7569   -0.2301   -4.2927 H   0  0  0  0  0  0  0  0  0  0  0  0
   -1.0163    2.3630   -5.9312 Si  0  0  0  0  0  4  0  0  0  0  0  0
   -1.2361    1.7432   -8.0499 Si  0  0  0  0  0  4  0  0  0  0  0  0
   -6.8930    2.1728   -6.2463 Si  0  0  0  0  0  4  0  0  0  0  0  0
   -5.2262    2.8518   -4.9578 Si  0  0  0  0  0  4  0  0  0  0  0  0
   -4.0032    2.9206   -5.8067 H   0  0  0  0  0  0  0  0  0  0  0  0
   -5.4915    4.1971   -4.3877 H   0  0  0  0  0  0  0  0  0  0  0  0
   -0.5815    3.2800   -9.4794 Si  0  0  0  0  0  4  0  0  0  0  0  0
   -7.5952    3.9241   -7.4608 Si  0  0  0  0  0  4  0  0  0  0  0  0
   -2.3105    4.4928  -10.2597 Si  0  0  0  0  0  4  0  0  0  0  0  0
   -6.2997    5.7156   -7.0851 Si  0  0  0  0  0  4  0  0  0  0  0  0
   -2.6387    1.4185   -8.2934 H   0  0  0  0  0  0  0  0  0  0  0  0
   -0.4610    0.5024   -8.2436 H   0  0  0  0  0  0  0  0  0  0  0  0
    0.4413    4.1780   -8.9720 H   0  0  0  0  0  0  0  0  0  0  0  0
   -0.0057    2.5908  -10.6705 H   0  0  0  0  0  0  0  0  0  0  0  0
   -5.2905    5.3623   -6.0502 H   0  0  0  0  0  0  0  0  0  0  0  0
   -7.0968    6.8171   -6.5556 H   0  0  0  0  0  0  0  0  0  0  0  0
   -2.9888    5.9152   -8.6930 Si  0  0  0  0  0  4  0  0  0  0  0  0
   -2.7365    5.2738   -7.3764 H   0  0  0  0  0  0  0  0  0  0  0  0
   -2.2109    7.1596   -8.8103 H   0  0  0  0  0  0  0  0  0  0  0  0
   -5.1886    6.3137   -8.9117 Si  0  0  0  0  0  4  0  0  0  0  0  0
   -5.7496    5.5951  -10.0507 H   0  0  0  0  0  0  0  0  0  0  0  0
   -5.4074    7.7526   -9.1396 H   0  0  0  0  0  0  0  0  0  0  0  0
   -1.8210    5.2024  -11.4551 H   0  0  0  0  0  0  0  0  0  0  0  0
   -3.3966    3.6084  -10.6889 H   0  0  0  0  0  0  0  0  0  0  0  0
   -7.5296    3.6098   -8.8975 H   0  0  0  0  0  0  0  0  0  0  0  0
   -8.9795    4.2116   -7.0864 H   0  0  0  0  0  0  0  0  0  0  0  0
   -6.3567    1.1512   -7.1794 H   0  0  0  0  0  0  0  0  0  0  0  0
   -7.9831    1.5684   -5.4886 H   0  0  0  0  0  0  0  0  0  0  0  0
   -1.6709    3.6234   -5.6348 H   0  0  0  0  0  0  0  0  0  0  0  0
    0.4074    2.5048   -5.5433 H   0  0  0  0  0  0  0  0  0  0  0  0
  1  2  1  0
  1  5  1  0
  2  3  1  0
  2  4  1  0
  2 11  1  0
  5  6  1  0
  5  7  1  0
  5  8  1  0
  8  9  1  0
  8 36  1  0
  8 37  1  0
  9 14  1  0
  9 18  1  0
  9 19  1  0
 10 11  1  0
 10 15  1  0
 10 34  1  0
 10 35  1  0
 11 12  1  0
 11 13  1  0
 14 16  1  0
 14 20  1  0
 14 21  1  0
 15 17  1  0
 15 32  1  0
 15 33  1  0
 16 24  1  0
 16 30  1  0
 16 31  1  0
 17 22  1  0
 17 23  1  0
 17 27  1  0
 24 25  1  0
 24 26  1  0
 24 27  1  0
 27 28  1  0
 27 29  1  0
M  CHG  1   1   1
M  RAD  1   1   2
M  END
$$$$

     RDKit          3D

 37 37  0  0  0  0  0  0  0  0999 V2000
   -2.7466    1.4232   -2.8967 S   0  0  0  0  0  2  0  0  0  0  0  0
   -2.5164    3.0698   -4.2883 Si  0  0  0  0  0  4  0  0  0  0  0  0
   -1.1448    3.6019   -4.0498 H   0  0  0  0  0  0  0  0  0  0  0  0
   -2.6428    2.5894   -5.6575 H   0  0  0  0  0  0  0  0  0  0  0  0
   -3.6795   -0.1978   -3.9786 Si  0  0  0  0  0  4  0  0  0  0  0  0
   -3.8003   -1.3707   -3.0687 H   0  0  0  0  0  0  0  0  0  0  0  0
   -2.7826   -0.5772   -5.0595 H   0  0  0  0  0  0  0  0  0  0  0  0
   -5.6629    0.4911   -4.6695 Si  0  0  0  0  0  4  0  0  0  0  0  0
   -5.8053    0.5739   -6.8906 Si  0  0  0  0  0  4  0  0  0  0  0  0
   -5.2300    5.1057   -5.7350 Si  0  0  0  0  0  4  0  0  0  0  0  0
   -4.0013    4.6619   -3.8990 Si  0  0  0  0  0  4  0  0  0  0  0  0
   -3.3586    5.8911   -3.4160 H   0  0  0  0  0  0  0  0  0  0  0  0
   -4.8869    4.1999   -2.7932 H   0  0  0  0  0  0  0  0  0  0  0  0
   -7.9773    0.5069   -7.4345 Si  0  0  0  0  0  4  0  0  0  0  0  0
   -7.3269    5.3700   -5.0885 Si  0  0  0  0  0  4  0  0  0  0  0  0
   -8.4142    1.7958   -9.1898 Si  0  0  0  0  0  4  0  0  0  0  0  0
   -8.5689    6.4179   -6.6016 Si  0  0  0  0  0  4  0  0  0  0  0  0
   -5.1602    1.7891   -7.4336 H   0  0  0  0  0  0  0  0  0  0  0  0
   -5.0885   -0.5714   -7.5197 H   0  0  0  0  0  0  0  0  0  0  0  0
   -8.7714    1.0109   -6.2956 H   0  0  0  0  0  0  0  0  0  0  0  0
   -8.3145   -0.9094   -7.6879 H   0  0  0  0  0  0  0  0  0  0  0  0
   -9.9608    6.3908   -6.1269 H   0  0  0  0  0  0  0  0  0  0  0  0
   -8.1784    7.8274   -6.7127 H   0  0  0  0  0  0  0  0  0  0  0  0
   -9.7020    3.5436   -8.5951 Si  0  0  0  0  0  4  0  0  0  0  0  0
  -10.2024    3.3298   -7.2222 H   0  0  0  0  0  0  0  0  0  0  0  0
  -10.8599    3.6256   -9.4720 H   0  0  0  0  0  0  0  0  0  0  0  0
   -8.5014    5.4258   -8.5847 Si  0  0  0  0  0  4  0  0  0  0  0  0
   -7.1306    5.1976   -9.0507 H   0  0  0  0  0  0  0  0  0  0  0  0
   -9.1306    6.3435   -9.5651 H   0  0  0  0  0  0  0  0  0  0  0  0
   -7.1980    2.2362   -9.8636 H   0  0  0  0  0  0  0  0  0  0  0  0
   -9.1663    0.9667  -10.1725 H   0  0  0  0  0  0  0  0  0  0  0  0
   -7.3227    6.2005   -3.8675 H   0  0  0  0  0  0  0  0  0  0  0  0
   -7.9181    4.0715   -4.7506 H   0  0  0  0  0  0  0  0  0  0  0  0
   -4.7085    6.3820   -6.2952 H   0  0  0  0  0  0  0  0  0  0  0  0
   -5.0506    4.0902   -6.7524 H   0  0  0  0  0  0  0  0  0  0  0  0
   -5.9923    1.8411   -4.1559 H   0  0  0  0  0  0  0  0  0  0  0  0
   -6.6844   -0.4773   -4.2022 H   0  0  0  0  0  0  0  0  0  0  0  0
  1  2  1  0
  1  5  1  0
  2  3  1  0
  2  4  1  0
  2 11  1  0
  5  6  1  0
  5  7  1  0
  5  8  1  0
  8  9  1  0
  8 36  1  0
  8 37  1  0
  9 14  1  0
  9 18  1  0
  9 19  1  0
 10 11  1  0
 10 15  1  0
 10 34  1  0
 10 35  1  0
 11 12  1  0
 11 13  1  0
 14 16  1  0
 14 20  1  0
 14 21  1  0
 15 17  1  0
 15 32  1  0
 15 33  1  0
 16 24  1  0
 16 30  1  0
 16 31  1  0
 17 22  1  0
 17 23  1  0
 17 27  1  0
 24 25  1  0
 24 26  1  0
 24 27  1  0
 27 28  1  0
 27 29  1  0
M  CHG  1   1   1
M  RAD  1   1   2
M  END
$$$$

     RDKit          3D

 37 37  0  0  0  0  0  0  0  0999 V2000
   -2.7466    1.4232   -2.8967 S   0  0  0  0  0  2  0  0  0  0  0  0
   -4.1968    3.0340   -2.9539 Si  0  0  0  0  0  4  0  0  0  0  0  0
   -3.7756    3.9849   -1.8863 H   0  0  0  0  0  0  0  0  0  0  0  0
   -4.1679    3.6876   -4.2552 H   0  0  0  0  0  0  0  0  0  0  0  0
   -2.2246    0.9649   -4.9426 Si  0  0  0  0  0  4  0  0  0  0  0  0
   -1.1831   -0.0997   -4.9417 H   0  0  0  0  0  0  0  0  0  0  0  0
   -1.6252    2.1582   -5.5202 H   0  0  0  0  0  0  0  0  0  0  0  0
   -4.0560    0.2968   -5.9842 Si  0  0  0  0  0  4  0  0  0  0  0  0
   -4.6542    1.6833   -7.6213 Si  0  0  0  0  0  4  0  0  0  0  0  0
   -7.6682    2.8084   -4.1784 Si  0  0  0  0  0  4  0  0  0  0  0  0
   -6.2348    2.2936   -2.5178 Si  0  0  0  0  0  4  0  0  0  0  0  0
   -6.7364    2.8184   -1.2410 H   0  0  0  0  0  0  0  0  0  0  0  0
   -6.1576    0.8147   -2.3520 H   0  0  0  0  0  0  0  0  0  0  0  0
   -5.9677    0.5417   -9.0318 Si  0  0  0  0  0  4  0  0  0  0  0  0
   -8.9587    1.0464   -4.5179 Si  0  0  0  0  0  4  0  0  0  0  0  0
   -7.5947    1.8198   -9.8395 Si  0  0  0  0  0  4  0  0  0  0  0  0
  -10.8118    1.5393   -5.6373 Si  0  0  0  0  0  4  0  0  0  0  0  0
   -5.3515    2.8777   -7.0970 H   0  0  0  0  0  0  0  0  0  0  0  0
   -3.4622    2.2059   -8.3475 H   0  0  0  0  0  0  0  0  0  0  0  0
   -6.5942   -0.5787   -8.3012 H   0  0  0  0  0  0  0  0  0  0  0  0
   -5.0949    0.0126  -10.1005 H   0  0  0  0  0  0  0  0  0  0  0  0
  -11.4991    0.2732   -5.9342 H   0  0  0  0  0  0  0  0  0  0  0  0
  -11.7223    2.3414   -4.8133 H   0  0  0  0  0  0  0  0  0  0  0  0
   -9.6000    1.1301   -9.0846 Si  0  0  0  0  0  4  0  0  0  0  0  0
   -9.4421   -0.1804   -8.4223 H   0  0  0  0  0  0  0  0  0  0  0  0
  -10.5123    0.9450  -10.2026 H   0  0  0  0  0  0  0  0  0  0  0  0
  -10.3909    2.5587   -7.5622 Si  0  0  0  0  0  4  0  0  0  0  0  0
   -9.5123    3.7207   -7.4005 H   0  0  0  0  0  0  0  0  0  0  0  0
  -11.6788    3.0759   -8.0848 H   0  0  0  0  0  0  0  0  0  0  0  0
   -7.3760    3.2331   -9.5530 H   0  0  0  0  0  0  0  0  0  0  0  0
   -7.5738    1.6801  -11.3222 H   0  0  0  0  0  0  0  0  0  0  0  0
   -9.3650    0.5222   -3.1985 H   0  0  0  0  0  0  0  0  0  0  0  0
   -8.2060   -0.0043   -5.2101 H   0  0  0  0  0  0  0  0  0  0  0  0
   -8.4888    3.9501   -3.6908 H   0  0  0  0  0  0  0  0  0  0  0  0
   -6.9683    3.2630   -5.3624 H   0  0  0  0  0  0  0  0  0  0  0  0
   -5.2092    0.1805   -5.0614 H   0  0  0  0  0  0  0  0  0  0  0  0
   -3.7868   -1.0226   -6.6060 H   0  0  0  0  0  0  0  0  0  0  0  0
  1  2  1  0
  1  5  1  0
  2  3  1  0
  2  4  1  0
  2 11  1  0
  5  6  1  0
  5  7  1  0
  5  8  1  0
  8  9  1  0
  8 36  1  0
  8 37  1  0
  9 14  1  0
  9 18  1  0
  9 19  1  0
 10 11  1  0
 10 15  1  0
 10 34  1  0
 10 35  1  0
 11 12  1  0
 11 13  1  0
 14 16  1  0
 14 20  1  0
 14 21  1  0
 15 17  1  0
 15 32  1  0
 15 33  1  0
 16 24  1  0
 16 30  1  0
 16 31  1  0
 17 22  1  0
 17 23  1  0
 17 27  1  0
 24 25  1  0
 24 26  1  0
 24 27  1  0
 27 28  1  0
 27 29  1  0
M  CHG  1   1   1
M  RAD  1   1   2
M  END
$$$$

     RDKit          3D

 37 37  0  0  0  0  0  0  0  0999 V2000
   -2.7466    1.4232   -2.8967 S   0  0  0  0  0  2  0  0  0  0  0  0
   -3.2854    3.0335   -4.2444 Si  0  0  0  0  0  4  0  0  0  0  0  0
   -4.4773    3.6994   -3.6925 H   0  0  0  0  0  0  0  0  0  0  0  0
   -2.1675    3.9664   -4.4175 H   0  0  0  0  0  0  0  0  0  0  0  0
   -4.4462    0.1725   -2.6697 Si  0  0  0  0  0  4  0  0  0  0  0  0
   -5.6783    0.9320   -3.0044 H   0  0  0  0  0  0  0  0  0  0  0  0
   -4.5501   -0.2294   -1.2666 H   0  0  0  0  0  0  0  0  0  0  0  0
   -4.3074   -1.6534   -3.9850 Si  0  0  0  0  0  4  0  0  0  0  0  0
   -6.3744   -2.1601   -4.6109 Si  0  0  0  0  0  4  0  0  0  0  0  0
   -5.5222    3.1441   -7.1756 Si  0  0  0  0  0  4  0  0  0  0  0  0
   -3.8602    2.0745   -6.1790 Si  0  0  0  0  0  4  0  0  0  0  0  0
   -4.3067    0.6720   -5.9447 H   0  0  0  0  0  0  0  0  0  0  0  0
   -2.6398    2.0551   -7.0249 H   0  0  0  0  0  0  0  0  0  0  0  0
   -6.4726   -3.8704   -5.9889 Si  0  0  0  0  0  4  0  0  0  0  0  0
   -5.5193    2.5722   -9.3455 Si  0  0  0  0  0  4  0  0  0  0  0  0
   -6.6035   -3.2116   -8.1379 Si  0  0  0  0  0  4  0  0  0  0  0  0
   -3.9555    1.0166   -9.7498 Si  0  0  0  0  0  4  0  0  0  0  0  0
   -6.9649   -0.9869   -5.2490 H   0  0  0  0  0  0  0  0  0  0  0  0
   -7.1626   -2.4384   -3.3947 H   0  0  0  0  0  0  0  0  0  0  0  0
   -5.3844   -4.8219   -5.8465 H   0  0  0  0  0  0  0  0  0  0  0  0
   -7.7389   -4.6115   -5.7194 H   0  0  0  0  0  0  0  0  0  0  0  0
   -3.2109    0.7538   -8.4886 H   0  0  0  0  0  0  0  0  0  0  0  0
   -2.9912    1.5078  -10.7287 H   0  0  0  0  0  0  0  0  0  0  0  0
   -4.6151   -2.4879   -8.8167 Si  0  0  0  0  0  4  0  0  0  0  0  0
   -3.9333   -1.8992   -7.6346 H   0  0  0  0  0  0  0  0  0  0  0  0
   -3.8431   -3.6302   -9.3328 H   0  0  0  0  0  0  0  0  0  0  0  0
   -4.8653   -0.9045  -10.3902 Si  0  0  0  0  0  4  0  0  0  0  0  0
   -6.2735   -0.6717  -10.6926 H   0  0  0  0  0  0  0  0  0  0  0  0
   -4.2073   -1.3395  -11.6345 H   0  0  0  0  0  0  0  0  0  0  0  0
   -7.0413   -4.3867   -8.9122 H   0  0  0  0  0  0  0  0  0  0  0  0
   -7.6313   -2.1788   -8.2893 H   0  0  0  0  0  0  0  0  0  0  0  0
   -6.8258    2.0127   -9.7290 H   0  0  0  0  0  0  0  0  0  0  0  0
   -5.2532    3.7757  -10.1327 H   0  0  0  0  0  0  0  0  0  0  0  0
   -6.7925    2.6663   -6.5756 H   0  0  0  0  0  0  0  0  0  0  0  0
   -5.4511    4.5901   -6.9974 H   0  0  0  0  0  0  0  0  0  0  0  0
   -3.4093   -1.4376   -5.1039 H   0  0  0  0  0  0  0  0  0  0  0  0
   -3.7111   -2.7160   -3.1407 H   0  0  0  0  0  0  0  0  0  0  0  0
  1  2  1  0
  1  5  1  0
  2  3  1  0
  2  4  1  0
  2 11  1  0
  5  6  1  0
  5  7  1  0
  5  8  1  0
  8  9  1  0
  8 36  1  0
  8 37  1  0
  9 14  1  0
  9 18  1  0
  9 19  1  0
 10 11  1  0
 10 15  1  0
 10 34  1  0
 10 35  1  0
 11 12  1  0
 11 13  1  0
 14 16  1  0
 14 20  1  0
 14 21  1  0
 15 17  1  0
 15 32  1  0
 15 33  1  0
 16 24  1  0
 16 30  1  0
 16 31  1  0
 17 22  1  0
 17 23  1  0
 17 27  1  0
 24 25  1  0
 24 26  1  0
 24 27  1  0
 27 28  1  0
 27 29  1  0
M  CHG  1   1   1
M  RAD  1   1   2
M  END
$$$$

     RDKit          3D

 37 37  0  0  0  0  0  0  0  0999 V2000
   -2.7466    1.4232   -2.8967 S   0  0  0  0  0  2  0  0  0  0  0  0
   -2.2345    2.6946   -4.5766 Si  0  0  0  0  0  4  0  0  0  0  0  0
   -0.7663    2.9257   -4.4660 H   0  0  0  0  0  0  0  0  0  0  0  0
   -2.5487    2.0203   -5.8288 H   0  0  0  0  0  0  0  0  0  0  0  0
   -4.0854   -0.1018   -3.6385 Si  0  0  0  0  0  4  0  0  0  0  0  0
   -4.4131   -1.0321   -2.5226 H   0  0  0  0  0  0  0  0  0  0  0  0
   -3.3644   -0.8669   -4.6443 H   0  0  0  0  0  0  0  0  0  0  0  0
   -5.8997    0.8960   -4.4121 Si  0  0  0  0  0  4  0  0  0  0  0  0
   -6.1536    0.6115   -6.6065 Si  0  0  0  0  0  4  0  0  0  0  0  0
   -4.4999    5.0154   -6.3327 Si  0  0  0  0  0  4  0  0  0  0  0  0
   -3.2948    4.6326   -4.4676 Si  0  0  0  0  0  4  0  0  0  0  0  0
   -2.3628    5.7438   -4.2352 H   0  0  0  0  0  0  0  0  0  0  0  0
   -4.1935    4.5953   -3.2795 H   0  0  0  0  0  0  0  0  0  0  0  0
   -8.3132    0.9572   -7.0903 Si  0  0  0  0  0  4  0  0  0  0  0  0
   -6.4398    5.8729   -5.7112 Si  0  0  0  0  0  4  0  0  0  0  0  0
   -8.5526    1.9774   -9.0487 Si  0  0  0  0  0  4  0  0  0  0  0  0
   -7.5017    6.8940   -7.3724 Si  0  0  0  0  0  4  0  0  0  0  0  0
   -5.2845    1.5255   -7.3791 H   0  0  0  0  0  0  0  0  0  0  0  0
   -5.7536   -0.7629   -7.0215 H   0  0  0  0  0  0  0  0  0  0  0  0
   -8.9026    1.8277   -6.0528 H   0  0  0  0  0  0  0  0  0  0  0  0
   -8.9766   -0.3632   -7.0674 H   0  0  0  0  0  0  0  0  0  0  0  0
   -8.8324    7.2777   -6.8771 H   0  0  0  0  0  0  0  0  0  0  0  0
   -6.8101    8.1302   -7.7530 H   0  0  0  0  0  0  0  0  0  0  0  0
   -9.3736    4.0548   -8.7707 Si  0  0  0  0  0  4  0  0  0  0  0  0
   -9.8255    4.2126   -7.3736 H   0  0  0  0  0  0  0  0  0  0  0  0
  -10.5337    4.2468   -9.6271 H   0  0  0  0  0  0  0  0  0  0  0  0
   -7.7801    5.5756   -9.1348 Si  0  0  0  0  0  4  0  0  0  0  0  0
   -6.5272    4.9542   -9.5732 H   0  0  0  0  0  0  0  0  0  0  0  0
   -8.2435    6.4244  -10.2590 H   0  0  0  0  0  0  0  0  0  0  0  0
   -7.3113    1.9942   -9.8142 H   0  0  0  0  0  0  0  0  0  0  0  0
   -9.5305    1.1849   -9.8450 H   0  0  0  0  0  0  0  0  0  0  0  0
   -6.1742    6.8839   -4.6682 H   0  0  0  0  0  0  0  0  0  0  0  0
   -7.2877    4.8301   -5.1252 H   0  0  0  0  0  0  0  0  0  0  0  0
   -3.7382    6.0135   -7.1316 H   0  0  0  0  0  0  0  0  0  0  0  0
   -4.6165    3.8211   -7.1442 H   0  0  0  0  0  0  0  0  0  0  0  0
   -5.8837    2.3551   -4.1556 H   0  0  0  0  0  0  0  0  0  0  0  0
   -7.0836    0.2923   -3.7536 H   0  0  0  0  0  0  0  0  0  0  0  0
  1  2  1  0
  1  5  1  0
  2  3  1  0
  2  4  1  0
  2 11  1  0
  5  6  1  0
  5  7  1  0
  5  8  1  0
  8  9  1  0
  8 36  1  0
  8 37  1  0
  9 14  1  0
  9 18  1  0
  9 19  1  0
 10 11  1  0
 10 15  1  0
 10 34  1  0
 10 35  1  0
 11 12  1  0
 11 13  1  0
 14 16  1  0
 14 20  1  0
 14 21  1  0
 15 17  1  0
 15 32  1  0
 15 33  1  0
 16 24  1  0
 16 30  1  0
 16 31  1  0
 17 22  1  0
 17 23  1  0
 17 27  1  0
 24 25  1  0
 24 26  1  0
 24 27  1  0
 27 28  1  0
 27 29  1  0
M  CHG  1   1   1
M  RAD  1   1   2
M  END
$$$$

     RDKit          3D

 37 37  0  0  0  0  0  0  0  0999 V2000
   -2.7466    1.4232   -2.8967 S   0  0  0  0  0  2  0  0  0  0  0  0
   -1.6990    0.8492   -4.6944 Si  0  0  0  0  0  4  0  0  0  0  0  0
   -0.8720    1.9829   -5.0997 H   0  0  0  0  0  0  0  0  0  0  0  0
   -0.8759   -0.3333   -4.3306 H   0  0  0  0  0  0  0  0  0  0  0  0
   -4.8685    1.4332   -3.3188 Si  0  0  0  0  0  4  0  0  0  0  0  0
   -5.3573    0.1143   -3.6639 H   0  0  0  0  0  0  0  0  0  0  0  0
   -5.0447    2.3606   -4.4716 H   0  0  0  0  0  0  0  0  0  0  0  0
   -5.8851    2.2779   -1.5118 Si  0  0  0  0  0  4  0  0  0  0  0  0
   -5.6053    4.5097   -1.6137 Si  0  0  0  0  0  4  0  0  0  0  0  0
   -2.8695    1.4194   -8.1434 Si  0  0  0  0  0  4  0  0  0  0  0  0
   -3.1500    0.2639   -6.2693 Si  0  0  0  0  0  4  0  0  0  0  0  0
   -4.5307    0.4779   -5.7554 H   0  0  0  0  0  0  0  0  0  0  0  0
   -3.0324   -1.1617   -6.5894 H   0  0  0  0  0  0  0  0  0  0  0  0
   -5.6980    5.1074   -3.7679 Si  0  0  0  0  0  4  0  0  0  0  0  0
   -2.7804    3.6072   -7.7838 Si  0  0  0  0  0  4  0  0  0  0  0  0
   -7.4809    4.2134   -4.7752 Si  0  0  0  0  0  4  0  0  0  0  0  0
   -4.4281    4.6818   -8.8634 Si  0  0  0  0  0  4  0  0  0  0  0  0
   -4.2663    4.7935   -1.0938 H   0  0  0  0  0  0  0  0  0  0  0  0
   -6.6229    5.2122   -0.8585 H   0  0  0  0  0  0  0  0  0  0  0  0
   -5.8339    6.5698   -3.8569 H   0  0  0  0  0  0  0  0  0  0  0  0
   -4.5091    4.6555   -4.4985 H   0  0  0  0  0  0  0  0  0  0  0  0
   -3.8243    5.5619   -9.8922 H   0  0  0  0  0  0  0  0  0  0  0  0
   -5.2763    3.6891   -9.5187 H   0  0  0  0  0  0  0  0  0  0  0  0
   -7.5236    4.9751   -6.8788 Si  0  0  0  0  0  4  0  0  0  0  0  0
   -7.8793    3.9062   -7.8190 H   0  0  0  0  0  0  0  0  0  0  0  0
   -8.5922    6.0029   -6.9354 H   0  0  0  0  0  0  0  0  0  0  0  0
   -5.5875    5.9146   -7.4297 Si  0  0  0  0  0  4  0  0  0  0  0  0
   -5.8080    7.2625   -7.9813 H   0  0  0  0  0  0  0  0  0  0  0  0
   -4.8134    6.1016   -6.1795 H   0  0  0  0  0  0  0  0  0  0  0  0
   -8.6744    4.5990   -4.0280 H   0  0  0  0  0  0  0  0  0  0  0  0
   -7.4033    2.7564   -4.8079 H   0  0  0  0  0  0  0  0  0  0  0  0
   -1.4572    4.0862   -8.2215 H   0  0  0  0  0  0  0  0  0  0  0  0
   -2.8897    3.8616   -6.3435 H   0  0  0  0  0  0  0  0  0  0  0  0
   -4.0255    1.1263   -9.0248 H   0  0  0  0  0  0  0  0  0  0  0  0
   -1.6770    0.9409   -8.8535 H   0  0  0  0  0  0  0  0  0  0  0  0
   -7.2903    1.9150   -1.4659 H   0  0  0  0  0  0  0  0  0  0  0  0
   -5.1964    1.7806   -0.3135 H   0  0  0  0  0  0  0  0  0  0  0  0
  1  2  1  0
  1  5  1  0
  2  3  1  0
  2  4  1  0
  2 11  1  0
  5  6  1  0
  5  7  1  0
  5  8  1  0
  8  9  1  0
  8 36  1  0
  8 37  1  0
  9 14  1  0
  9 18  1  0
  9 19  1  0
 10 11  1  0
 10 15  1  0
 10 34  1  0
 10 35  1  0
 11 12  1  0
 11 13  1  0
 14 16  1  0
 14 20  1  0
 14 21  1  0
 15 17  1  0
 15 32  1  0
 15 33  1  0
 16 24  1  0
 16 30  1  0
 16 31  1  0
 17 22  1  0
 17 23  1  0
 17 27  1  0
 24 25  1  0
 24 26  1  0
 24 27  1  0
 27 28  1  0
 27 29  1  0
M  CHG  1   1   1
M  RAD  1   1   2
M  END
$$$$

     RDKit          3D

 37 37  0  0  0  0  0  0  0  0999 V2000
   -2.7466    1.4232   -2.8967 S   0  0  0  0  0  2  0  0  0  0  0  0
   -4.3916    0.0696   -3.2997 Si  0  0  0  0  0  4  0  0  0  0  0  0
   -4.5684   -0.7229   -2.0499 H   0  0  0  0  0  0  0  0  0  0  0  0
   -5.6008    0.8255   -3.5961 H   0  0  0  0  0  0  0  0  0  0  0  0
   -3.3131    3.3598   -3.6692 Si  0  0  0  0  0  4  0  0  0  0  0  0
   -2.2296    4.3329   -3.3572 H   0  0  0  0  0  0  0  0  0  0  0  0
   -4.5025    3.7886   -2.9492 H   0  0  0  0  0  0  0  0  0  0  0  0
   -3.6158    3.1661   -5.8502 Si  0  0  0  0  0  4  0  0  0  0  0  0
   -5.7260    3.5494   -6.4508 Si  0  0  0  0  0  4  0  0  0  0  0  0
   -5.4565   -1.1522   -6.6125 Si  0  0  0  0  0  4  0  0  0  0  0  0
   -3.9156   -1.2941   -4.9747 Si  0  0  0  0  0  4  0  0  0  0  0  0
   -3.7944   -2.6851   -4.5186 H   0  0  0  0  0  0  0  0  0  0  0  0
   -2.5743   -0.9172   -5.5034 H   0  0  0  0  0  0  0  0  0  0  0  0
   -5.7257    4.0882   -8.6250 Si  0  0  0  0  0  4  0  0  0  0  0  0
   -4.3834   -1.1813   -8.5445 Si  0  0  0  0  0  4  0  0  0  0  0  0
   -7.5070    3.2645   -9.6651 Si  0  0  0  0  0  4  0  0  0  0  0  0
   -5.7052   -1.6843  -10.2562 Si  0  0  0  0  0  4  0  0  0  0  0  0
   -6.5876    2.3744   -6.1960 H   0  0  0  0  0  0  0  0  0  0  0  0
   -6.3205    4.6587   -5.6525 H   0  0  0  0  0  0  0  0  0  0  0  0
   -4.5244    3.5104   -9.2609 H   0  0  0  0  0  0  0  0  0  0  0  0
   -5.6696    5.5629   -8.7034 H   0  0  0  0  0  0  0  0  0  0  0  0
   -4.9177   -1.5170  -11.4872 H   0  0  0  0  0  0  0  0  0  0  0  0
   -6.1226   -3.0892  -10.1987 H   0  0  0  0  0  0  0  0  0  0  0  0
   -6.9046    1.6766  -11.1425 Si  0  0  0  0  0  4  0  0  0  0  0  0
   -5.4364    1.6961  -11.3005 H   0  0  0  0  0  0  0  0  0  0  0  0
   -7.4858    1.9663  -12.4443 H   0  0  0  0  0  0  0  0  0  0  0  0
   -7.4696   -0.3456  -10.3838 Si  0  0  0  0  0  4  0  0  0  0  0  0
   -8.2041   -0.2645   -9.1180 H   0  0  0  0  0  0  0  0  0  0  0  0
   -8.4045   -0.9317  -11.3746 H   0  0  0  0  0  0  0  0  0  0  0  0
   -8.5083    2.7672   -8.7285 H   0  0  0  0  0  0  0  0  0  0  0  0
   -8.1439    4.3863  -10.4098 H   0  0  0  0  0  0  0  0  0  0  0  0
   -3.3420   -2.2254   -8.4680 H   0  0  0  0  0  0  0  0  0  0  0  0
   -3.7183    0.1056   -8.7716 H   0  0  0  0  0  0  0  0  0  0  0  0
   -6.3150   -2.3618   -6.4923 H   0  0  0  0  0  0  0  0  0  0  0  0
   -6.3171   -0.0008   -6.4338 H   0  0  0  0  0  0  0  0  0  0  0  0
   -3.2551    1.8166   -6.3437 H   0  0  0  0  0  0  0  0  0  0  0  0
   -2.7765    4.1813   -6.5319 H   0  0  0  0  0  0  0  0  0  0  0  0
  1  2  1  0
  1  5  1  0
  2  3  1  0
  2  4  1  0
  2 11  1  0
  5  6  1  0
  5  7  1  0
  5  8  1  0
  8  9  1  0
  8 36  1  0
  8 37  1  0
  9 14  1  0
  9 18  1  0
  9 19  1  0
 10 11  1  0
 10 15  1  0
 10 34  1  0
 10 35  1  0
 11 12  1  0
 11 13  1  0
 14 16  1  0
 14 20  1  0
 14 21  1  0
 15 17  1  0
 15 32  1  0
 15 33  1  0
 16 24  1  0
 16 30  1  0
 16 31  1  0
 17 22  1  0
 17 23  1  0
 17 27  1  0
 24 25  1  0
 24 26  1  0
 24 27  1  0
 27 28  1  0
 27 29  1  0
M  CHG  1   1   1
M  RAD  1   1   2
M  END
$$$$

     RDKit          3D

 37 37  0  0  0  0  0  0  0  0999 V2000
   -2.7466    1.4232   -2.8967 S   0  0  0  0  0  2  0  0  0  0  0  0
   -4.3137    2.9214   -2.8796 Si  0  0  0  0  0  4  0  0  0  0  0  0
   -3.9768    3.8349   -1.7511 H   0  0  0  0  0  0  0  0  0  0  0  0
   -4.3207    3.6529   -4.1391 H   0  0  0  0  0  0  0  0  0  0  0  0
   -2.1700    1.1299   -4.9582 Si  0  0  0  0  0  4  0  0  0  0  0  0
   -1.0511    0.1480   -5.0050 H   0  0  0  0  0  0  0  0  0  0  0  0
   -1.6566    2.3974   -5.4547 H   0  0  0  0  0  0  0  0  0  0  0  0
   -3.9347    0.3907   -6.0651 Si  0  0  0  0  0  4  0  0  0  0  0  0
   -4.6189    1.8252   -7.6255 Si  0  0  0  0  0  4  0  0  0  0  0  0
   -7.7452    2.5111   -4.1673 Si  0  0  0  0  0  4  0  0  0  0  0  0
   -6.2943    2.0056   -2.5190 Si  0  0  0  0  0  4  0  0  0  0  0  0
   -6.8475    2.4131   -1.2208 H   0  0  0  0  0  0  0  0  0  0  0  0
   -6.1073    0.5293   -2.4403 H   0  0  0  0  0  0  0  0  0  0  0  0
   -5.8275    0.6758   -9.1209 Si  0  0  0  0  0  4  0  0  0  0  0  0
   -8.8951    0.6813   -4.6304 Si  0  0  0  0  0  4  0  0  0  0  0  0
   -7.5379    1.8751   -9.8754 Si  0  0  0  0  0  4  0  0  0  0  0  0
  -10.7684    1.1009   -5.7461 Si  0  0  0  0  0  4  0  0  0  0  0  0
   -5.4100    2.9301   -7.0415 H   0  0  0  0  0  0  0  0  0  0  0  0
   -3.4623    2.4784   -8.3013 H   0  0  0  0  0  0  0  0  0  0  0  0
   -6.3751   -0.5304   -8.4678 H   0  0  0  0  0  0  0  0  0  0  0  0
   -4.9060    0.2791  -10.2060 H   0  0  0  0  0  0  0  0  0  0  0  0
  -11.3549   -0.1928   -6.1281 H   0  0  0  0  0  0  0  0  0  0  0  0
  -11.7455    1.7814   -4.8895 H   0  0  0  0  0  0  0  0  0  0  0  0
   -9.4932    0.9928   -9.1930 Si  0  0  0  0  0  4  0  0  0  0  0  0
   -9.2435   -0.3398   -8.6077 H   0  0  0  0  0  0  0  0  0  0  0  0
  -10.3771    0.8080  -10.3336 H   0  0  0  0  0  0  0  0  0  0  0  0
  -10.4057    2.2636   -7.6003 Si  0  0  0  0  0  4  0  0  0  0  0  0
   -9.6192    3.4761   -7.3566 H   0  0  0  0  0  0  0  0  0  0  0  0
  -11.7234    2.7136   -8.1105 H   0  0  0  0  0  0  0  0  0  0  0  0
   -7.4297    3.2808   -9.5021 H   0  0  0  0  0  0  0  0  0  0  0  0
   -7.4910    1.8273  -11.3634 H   0  0  0  0  0  0  0  0  0  0  0  0
   -9.2744    0.0494   -3.3508 H   0  0  0  0  0  0  0  0  0  0  0  0
   -8.0579   -0.2663   -5.3726 H   0  0  0  0  0  0  0  0  0  0  0  0
   -8.6548    3.5567   -3.6249 H   0  0  0  0  0  0  0  0  0  0  0  0
   -7.0693    3.0877   -5.3115 H   0  0  0  0  0  0  0  0  0  0  0  0
   -5.0855    0.1329   -5.1682 H   0  0  0  0  0  0  0  0  0  0  0  0
   -3.5600   -0.8647   -6.7602 H   0  0  0  0  0  0  0  0  0  0  0  0
  1  2  1  0
  1  5  1  0
  2  3  1  0
  2  4  1  0
  2 11  1  0
  5  6  1  0
  5  7  1  0
  5  8  1  0
  8  9  1  0
  8 36  1  0
  8 37  1  0
  9 14  1  0
  9 18  1  0
  9 19  1  0
 10 11  1  0
 10 15  1  0
 10 34  1  0
 10 35  1  0
 11 12  1  0
 11 13  1  0
 14 16  1  0
 14 20  1  0
 14 21  1  0
 15 17  1  0
 15 32  1  0
 15 33  1  0
 16 24  1  0
 16 30  1  0
 16 31  1  0
 17 22  1  0
 17 23  1  0
 17 27  1  0
 24 25  1  0
 24 26  1  0
 24 27  1  0
 27 28  1  0
 27 29  1  0
M  CHG  1   1   1
M  RAD  1   1   2
M  END
$$$$
