
     RDKit          3D

 37 37  0  0  0  0  0  0  0  0999 V2000
    0.0863   -0.1701   -4.1131 S   0  0  0  0  0  2  0  0  0  0  0  0
   -1.9338   -0.8068   -4.4385 Si  0  0  0  0  0  4  0  0  0  0  0  0
   -2.8191    0.2623   -3.9288 H   0  0  0  0  0  0  0  0  0  0  0  0
   -2.2189   -2.0053   -3.6241 H   0  0  0  0  0  0  0  0  0  0  0  0
    1.5014   -1.4420   -5.0475 Si  0  0  0  0  0  4  0  0  0  0  0  0
    1.2170   -2.8703   -4.8492 H   0  0  0  0  0  0  0  0  0  0  0  0
    2.8251   -1.1980   -4.4070 H   0  0  0  0  0  0  0  0  0  0  0  0
    1.7287   -1.0484   -7.2142 Si  0  0  0  0  0  4  0  0  0  0  0  0
    1.5908    1.1398   -7.6806 Si  0  0  0  0  0  4  0  0  0  0  0  0
   -4.1782   -0.1665   -7.2950 Si  0  0  0  0  0  4  0  0  0  0  0  0
   -2.3088   -1.1471   -6.5893 Si  0  0  0  0  0  4  0  0  0  0  0  0
   -1.1943   -0.6003   -7.3566 H   0  0  0  0  0  0  0  0  0  0  0  0
   -2.3930   -2.5983   -6.8228 H   0  0  0  0  0  0  0  0  0  0  0  0
    0.4567    1.4281   -9.5640 Si  0  0  0  0  0  4  0  0  0  0  0  0
   -4.5010    1.8078   -6.3573 Si  0  0  0  0  0  4  0  0  0  0  0  0
   -1.1788    2.9036   -9.3614 Si  0  0  0  0  0  4  0  0  0  0  0  0
   -2.6586    2.6577   -5.4764 Si  0  0  0  0  0  4  0  0  0  0  0  0
    0.9525    1.8413   -6.5421 H   0  0  0  0  0  0  0  0  0  0  0  0
    2.9573    1.6724   -7.8000 H   0  0  0  0  0  0  0  0  0  0  0  0
   -0.1534    0.1343   -9.9763 H   0  0  0  0  0  0  0  0  0  0  0  0
    1.3748    1.8390  -10.6510 H   0  0  0  0  0  0  0  0  0  0  0  0
   -1.5055    1.8098   -5.7115 H   0  0  0  0  0  0  0  0  0  0  0  0
   -2.8211    2.8178   -4.0207 H   0  0  0  0  0  0  0  0  0  0  0  0
   -0.6979    4.5453   -7.9663 Si  0  0  0  0  0  4  0  0  0  0  0  0
    0.6392    4.3857   -7.4068 H   0  0  0  0  0  0  0  0  0  0  0  0
   -0.7498    5.8437   -8.6868 H   0  0  0  0  0  0  0  0  0  0  0  0
   -2.2100    4.6874   -6.3124 Si  0  0  0  0  0  4  0  0  0  0  0  0
   -3.4474    5.2952   -6.8482 H   0  0  0  0  0  0  0  0  0  0  0  0
   -1.6294    5.5617   -5.2824 H   0  0  0  0  0  0  0  0  0  0  0  0
   -1.4666    3.4475  -10.7157 H   0  0  0  0  0  0  0  0  0  0  0  0
   -2.4202    2.2474   -8.9179 H   0  0  0  0  0  0  0  0  0  0  0  0
   -5.0065    2.7777   -7.3680 H   0  0  0  0  0  0  0  0  0  0  0  0
   -5.5706    1.6624   -5.3398 H   0  0  0  0  0  0  0  0  0  0  0  0
   -4.0258    0.0493   -8.7626 H   0  0  0  0  0  0  0  0  0  0  0  0
   -5.3279   -1.0702   -7.1410 H   0  0  0  0  0  0  0  0  0  0  0  0
    0.7655   -1.8284   -7.9983 H   0  0  0  0  0  0  0  0  0  0  0  0
    3.0784   -1.5361   -7.6186 H   0  0  0  0  0  0  0  0  0  0  0  0
  1  2  1  0
  1  5  1  0
  2  3  1  0
  2  4  1  0
  2 11  1  0
  5  6  1  0
  5  7  1  0
  5  8  1  0
  8  9  1  0
  8 36  1  0
  8 37  1  0
  9 14  1  0
  9 18  1  0
  9 19  1  0
 10 11  1  0
 10 15  1  0
 10 34  1  0
 10 35  1  0
 11 12  1  0
 11 13  1  0
 14 16  1  0
 14 20  1  0
 14 21  1  0
 15 17  1  0
 15 32  1  0
 15 33  1  0
 16 24  1  0
 16 30  1  0
 16 31  1  0
 17 22  1  0
 17 23  1  0
 17 27  1  0
 24 25  1  0
 24 26  1  0
 24 27  1  0
 27 28  1  0
 27 29  1  0
M  CHG  1   1   1
M  RAD  1   1   2
M  END
$$$$

     RDKit          3D

 37 37  0  0  0  0  0  0  0  0999 V2000
    0.0863   -0.1701   -4.1131 S   0  0  0  0  0  2  0  0  0  0  0  0
    1.2361   -1.7348   -5.0238 Si  0  0  0  0  0  4  0  0  0  0  0  0
    1.1819   -2.8963   -4.0900 H   0  0  0  0  0  0  0  0  0  0  0  0
    2.6481   -1.3581   -5.1206 H   0  0  0  0  0  0  0  0  0  0  0  0
   -0.3070    1.4180   -5.5174 Si  0  0  0  0  0  4  0  0  0  0  0  0
    0.5220    1.1855   -6.6849 H   0  0  0  0  0  0  0  0  0  0  0  0
    0.0310    2.7175   -4.8835 H   0  0  0  0  0  0  0  0  0  0  0  0
   -2.4765    1.3188   -6.0448 Si  0  0  0  0  0  4  0  0  0  0  0  0
   -2.9337    2.3975   -7.9150 Si  0  0  0  0  0  4  0  0  0  0  0  0
    0.8599   -1.0300   -8.6252 Si  0  0  0  0  0  4  0  0  0  0  0  0
    0.4047   -2.3795   -6.9592 Si  0  0  0  0  0  4  0  0  0  0  0  0
   -1.0527   -2.5334   -6.8319 H   0  0  0  0  0  0  0  0  0  0  0  0
    0.9418   -3.7288   -7.2780 H   0  0  0  0  0  0  0  0  0  0  0  0
   -1.4929    4.0228   -8.3528 Si  0  0  0  0  0  4  0  0  0  0  0  0
    2.8890   -0.1591   -8.5500 Si  0  0  0  0  0  4  0  0  0  0  0  0
    0.3091    3.2359   -9.4280 Si  0  0  0  0  0  4  0  0  0  0  0  0
    3.2270    0.9791  -10.4636 Si  0  0  0  0  0  4  0  0  0  0  0  0
   -4.2996    2.9733   -7.7897 H   0  0  0  0  0  0  0  0  0  0  0  0
   -2.9520    1.4627   -9.0584 H   0  0  0  0  0  0  0  0  0  0  0  0
   -2.1519    4.9762   -9.2788 H   0  0  0  0  0  0  0  0  0  0  0  0
   -1.0845    4.7453   -7.1509 H   0  0  0  0  0  0  0  0  0  0  0  0
    4.3968    0.4041  -11.1577 H   0  0  0  0  0  0  0  0  0  0  0  0
    3.5049    2.3829  -10.2093 H   0  0  0  0  0  0  0  0  0  0  0  0
   -0.3082    1.8499  -11.0521 Si  0  0  0  0  0  4  0  0  0  0  0  0
   -1.3165    0.8776  -10.5989 H   0  0  0  0  0  0  0  0  0  0  0  0
   -0.9062    2.6235  -12.1434 H   0  0  0  0  0  0  0  0  0  0  0  0
    1.4778    0.7679  -11.8293 Si  0  0  0  0  0  4  0  0  0  0  0  0
    1.1906   -0.6786  -11.9840 H   0  0  0  0  0  0  0  0  0  0  0  0
    1.8760    1.2612  -13.1540 H   0  0  0  0  0  0  0  0  0  0  0  0
    1.2236    2.6149   -8.4809 H   0  0  0  0  0  0  0  0  0  0  0  0
    1.0054    4.3862  -10.0286 H   0  0  0  0  0  0  0  0  0  0  0  0
    2.9610    0.8314   -7.4458 H   0  0  0  0  0  0  0  0  0  0  0  0
    3.9229   -1.1751   -8.3681 H   0  0  0  0  0  0  0  0  0  0  0  0
   -0.1341    0.0356   -8.6873 H   0  0  0  0  0  0  0  0  0  0  0  0
    0.7427   -1.7945   -9.8996 H   0  0  0  0  0  0  0  0  0  0  0  0
   -3.2622    1.7684   -4.9002 H   0  0  0  0  0  0  0  0  0  0  0  0
   -2.7967   -0.1193   -6.2540 H   0  0  0  0  0  0  0  0  0  0  0  0
  1  2  1  0
  1  5  1  0
  2  3  1  0
  2  4  1  0
  2 11  1  0
  5  6  1  0
  5  7  1  0
  5  8  1  0
  8  9  1  0
  8 36  1  0
  8 37  1  0
  9 14  1  0
  9 18  1  0
  9 19  1  0
 10 11  1  0
 10 15  1  0
 10 34  1  0
 10 35  1  0
 11 12  1  0
 11 13  1  0
 14 16  1  0
 14 20  1  0
 14 21  1  0
 15 17  1  0
 15 32  1  0
 15 33  1  0
 16 24  1  0
 16 30  1  0
 16 31  1  0
 17 22  1  0
 17 23  1  0
 17 27  1  0
 24 25  1  0
 24 26  1  0
 24 27  1  0
 27 28  1  0
 27 29  1  0
M  CHG  1   1   1
M  RAD  1   1   2
M  END
$$$$

     RDKit          3D

 37 37  0  0  0  0  0  0  0  0999 V2000
    0.0863   -0.1701   -4.1131 S   0  0  0  0  0  2  0  0  0  0  0  0
   -1.8105   -1.1537   -4.0503 Si  0  0  0  0  0  4  0  0  0  0  0  0
   -1.9554   -1.7561   -2.7152 H   0  0  0  0  0  0  0  0  0  0  0  0
   -2.8478   -0.1364   -4.3074 H   0  0  0  0  0  0  0  0  0  0  0  0
    0.3090    1.0484   -5.8399 Si  0  0  0  0  0  4  0  0  0  0  0  0
    1.5128    1.8971   -5.6398 H   0  0  0  0  0  0  0  0  0  0  0  0
    0.4950    0.2805   -7.0706 H   0  0  0  0  0  0  0  0  0  0  0  0
   -1.4170    2.4778   -6.0669 Si  0  0  0  0  0  4  0  0  0  0  0  0
   -0.6572    4.2084   -7.2587 Si  0  0  0  0  0  4  0  0  0  0  0  0
   -3.1631   -2.0573   -7.3155 Si  0  0  0  0  0  4  0  0  0  0  0  0
   -1.8312   -2.7241   -5.6377 Si  0  0  0  0  0  4  0  0  0  0  0  0
   -0.4700   -2.9346   -6.1951 H   0  0  0  0  0  0  0  0  0  0  0  0
   -2.2583   -4.0075   -5.0864 H   0  0  0  0  0  0  0  0  0  0  0  0
   -2.2670    5.2768   -8.3146 Si  0  0  0  0  0  4  0  0  0  0  0  0
   -1.9313   -1.4372   -9.0635 Si  0  0  0  0  0  4  0  0  0  0  0  0
   -4.2778    4.4563   -7.9200 Si  0  0  0  0  0  4  0  0  0  0  0  0
   -2.5518    0.5730   -9.8281 Si  0  0  0  0  0  4  0  0  0  0  0  0
    0.0692    5.0993   -6.3231 H   0  0  0  0  0  0  0  0  0  0  0  0
    0.3535    3.6905   -8.2152 H   0  0  0  0  0  0  0  0  0  0  0  0
   -2.0204    5.2091   -9.7759 H   0  0  0  0  0  0  0  0  0  0  0  0
   -2.1984    6.7202   -7.9595 H   0  0  0  0  0  0  0  0  0  0  0  0
   -2.5274    0.5234  -11.3096 H   0  0  0  0  0  0  0  0  0  0  0  0
   -1.6515    1.6181   -9.3105 H   0  0  0  0  0  0  0  0  0  0  0  0
   -5.0115    3.2067   -9.6347 Si  0  0  0  0  0  4  0  0  0  0  0  0
   -4.3245    3.5897  -10.8789 H   0  0  0  0  0  0  0  0  0  0  0  0
   -6.4737    3.3881   -9.7737 H   0  0  0  0  0  0  0  0  0  0  0  0
   -4.6588    1.0377   -9.2363 Si  0  0  0  0  0  4  0  0  0  0  0  0
   -5.5548    0.2728  -10.1229 H   0  0  0  0  0  0  0  0  0  0  0  0
   -4.8975    0.6993   -7.8374 H   0  0  0  0  0  0  0  0  0  0  0  0
   -5.2196    5.5927   -7.7773 H   0  0  0  0  0  0  0  0  0  0  0  0
   -4.3501    3.6946   -6.6720 H   0  0  0  0  0  0  0  0  0  0  0  0
   -0.5331   -1.3172   -8.6214 H   0  0  0  0  0  0  0  0  0  0  0  0
   -1.9654   -2.4377  -10.1461 H   0  0  0  0  0  0  0  0  0  0  0  0
   -4.0046   -0.9470   -6.8551 H   0  0  0  0  0  0  0  0  0  0  0  0
   -3.9674   -3.2213   -7.7300 H   0  0  0  0  0  0  0  0  0  0  0  0
   -2.5613    1.8305   -6.7018 H   0  0  0  0  0  0  0  0  0  0  0  0
   -1.7351    2.9745   -4.7179 H   0  0  0  0  0  0  0  0  0  0  0  0
  1  2  1  0
  1  5  1  0
  2  3  1  0
  2  4  1  0
  2 11  1  0
  5  6  1  0
  5  7  1  0
  5  8  1  0
  8  9  1  0
  8 36  1  0
  8 37  1  0
  9 14  1  0
  9 18  1  0
  9 19  1  0
 10 11  1  0
 10 15  1  0
 10 34  1  0
 10 35  1  0
 11 12  1  0
 11 13  1  0
 14 16  1  0
 14 20  1  0
 14 21  1  0
 15 17  1  0
 15 32  1  0
 15 33  1  0
 16 24  1  0
 16 30  1  0
 16 31  1  0
 17 22  1  0
 17 23  1  0
 17 27  1  0
 24 25  1  0
 24 26  1  0
 24 27  1  0
 27 28  1  0
 27 29  1  0
M  CHG  1   1   1
M  RAD  1   1   2
M  END
$$$$

     RDKit          3D

 37 37  0  0  0  0  0  0  0  0999 V2000
    0.0863   -0.1701   -4.1131 S   0  0  0  0  0  2  0  0  0  0  0  0
    0.9455   -2.1027   -3.8032 Si  0  0  0  0  0  4  0  0  0  0  0  0
    1.4897   -2.1337   -2.4359 H   0  0  0  0  0  0  0  0  0  0  0  0
   -0.1255   -3.1006   -3.9888 H   0  0  0  0  0  0  0  0  0  0  0  0
   -1.0537   -0.0693   -5.9038 Si  0  0  0  0  0  4  0  0  0  0  0  0
   -1.8313    1.1971   -5.8716 H   0  0  0  0  0  0  0  0  0  0  0  0
   -0.2324   -0.0665   -7.1139 H   0  0  0  0  0  0  0  0  0  0  0  0
   -2.5801   -1.7228   -6.0021 Si  0  0  0  0  0  4  0  0  0  0  0  0
   -4.2159   -0.9996   -7.3415 Si  0  0  0  0  0  4  0  0  0  0  0  0
    1.8774   -3.8602   -6.8610 Si  0  0  0  0  0  4  0  0  0  0  0  0
    2.5668   -2.3917   -5.3111 Si  0  0  0  0  0  4  0  0  0  0  0  0
    2.8824   -1.1156   -6.0037 H   0  0  0  0  0  0  0  0  0  0  0  0
    3.8004   -2.8297   -4.6630 H   0  0  0  0  0  0  0  0  0  0  0  0
   -5.3455   -2.6511   -8.2604 Si  0  0  0  0  0  4  0  0  0  0  0  0
    1.3986   -2.7958   -8.7571 Si  0  0  0  0  0  4  0  0  0  0  0  0
   -4.6680   -4.6504   -7.6153 Si  0  0  0  0  0  4  0  0  0  0  0  0
   -0.6183   -3.3781   -9.5340 Si  0  0  0  0  0  4  0  0  0  0  0  0
   -5.0919   -0.1228   -6.5287 H   0  0  0  0  0  0  0  0  0  0  0  0
   -3.6017   -0.1335   -8.3793 H   0  0  0  0  0  0  0  0  0  0  0  0
   -5.2106   -2.5727   -9.7356 H   0  0  0  0  0  0  0  0  0  0  0  0
   -6.7934   -2.4588   -7.9761 H   0  0  0  0  0  0  0  0  0  0  0  0
   -0.5146   -3.5212  -11.0060 H   0  0  0  0  0  0  0  0  0  0  0  0
   -1.6222   -2.3660   -9.1618 H   0  0  0  0  0  0  0  0  0  0  0  0
   -3.4070   -5.6420   -9.1859 Si  0  0  0  0  0  4  0  0  0  0  0  0
   -3.7016   -5.0761  -10.5124 H   0  0  0  0  0  0  0  0  0  0  0  0
   -3.6752   -7.0974   -9.1728 H   0  0  0  0  0  0  0  0  0  0  0  0
   -1.2356   -5.3754   -8.7369 Si  0  0  0  0  0  4  0  0  0  0  0  0
   -0.4978   -6.4076   -9.4879 H   0  0  0  0  0  0  0  0  0  0  0  0
   -0.9628   -5.4768   -7.3074 H   0  0  0  0  0  0  0  0  0  0  0  0
   -5.8659   -5.5021   -7.4193 H   0  0  0  0  0  0  0  0  0  0  0  0
   -3.9572   -4.6283   -6.3358 H   0  0  0  0  0  0  0  0  0  0  0  0
    1.3514   -1.3525   -8.4749 H   0  0  0  0  0  0  0  0  0  0  0  0
    2.4328   -3.0085   -9.7863 H   0  0  0  0  0  0  0  0  0  0  0  0
    0.7005   -4.5787   -6.3592 H   0  0  0  0  0  0  0  0  0  0  0  0
    3.0023   -4.7726   -7.1362 H   0  0  0  0  0  0  0  0  0  0  0  0
   -1.9841   -2.9666   -6.4810 H   0  0  0  0  0  0  0  0  0  0  0  0
   -3.1434   -1.8595   -4.6488 H   0  0  0  0  0  0  0  0  0  0  0  0
  1  2  1  0
  1  5  1  0
  2  3  1  0
  2  4  1  0
  2 11  1  0
  5  6  1  0
  5  7  1  0
  5  8  1  0
  8  9  1  0
  8 36  1  0
  8 37  1  0
  9 14  1  0
  9 18  1  0
  9 19  1  0
 10 11  1  0
 10 15  1  0
 10 34  1  0
 10 35  1  0
 11 12  1  0
 11 13  1  0
 14 16  1  0
 14 20  1  0
 14 21  1  0
 15 17  1  0
 15 32  1  0
 15 33  1  0
 16 24  1  0
 16 30  1  0
 16 31  1  0
 17 22  1  0
 17 23  1  0
 17 27  1  0
 24 25  1  0
 24 26  1  0
 24 27  1  0
 27 28  1  0
 27 29  1  0
M  CHG  1   1   1
M  RAD  1   1   2
M  END
$$$$

     RDKit          3D

 37 37  0  0  0  0  0  0  0  0999 V2000
    0.0863   -0.1701   -4.1131 S   0  0  0  0  0  2  0  0  0  0  0  0
    1.7440   -1.1983   -5.0044 Si  0  0  0  0  0  4  0  0  0  0  0  0
    2.1506   -2.2595   -4.0388 H   0  0  0  0  0  0  0  0  0  0  0  0
    2.8998   -0.3090   -5.1398 H   0  0  0  0  0  0  0  0  0  0  0  0
   -0.9018    1.0963   -5.5514 Si  0  0  0  0  0  4  0  0  0  0  0  0
   -0.0570    1.1640   -6.7287 H   0  0  0  0  0  0  0  0  0  0  0  0
   -1.0872    2.4454   -4.9597 H   0  0  0  0  0  0  0  0  0  0  0  0
   -2.8687    0.1500   -6.0321 Si  0  0  0  0  0  4  0  0  0  0  0  0
   -3.7225    0.9069   -7.9210 Si  0  0  0  0  0  4  0  0  0  0  0  0
    1.0951   -0.8113   -8.6151 Si  0  0  0  0  0  4  0  0  0  0  0  0
    1.2106   -2.1768   -6.9046 Si  0  0  0  0  0  4  0  0  0  0  0  0
   -0.0729   -2.8772   -6.7438 H   0  0  0  0  0  0  0  0  0  0  0  0
    2.2249   -3.2237   -7.1977 H   0  0  0  0  0  0  0  0  0  0  0  0
   -3.0257    2.9473   -8.4314 Si  0  0  0  0  0  4  0  0  0  0  0  0
    2.6304    0.7775   -8.6044 Si  0  0  0  0  0  4  0  0  0  0  0  0
   -1.0684    2.8825   -9.5211 Si  0  0  0  0  0  4  0  0  0  0  0  0
    2.4863    1.8949  -10.5543 Si  0  0  0  0  0  4  0  0  0  0  0  0
   -5.2038    0.9144   -7.7837 H   0  0  0  0  0  0  0  0  0  0  0  0
   -3.3875    0.0008   -9.0382 H   0  0  0  0  0  0  0  0  0  0  0  0
   -4.0096    3.5415   -9.3692 H   0  0  0  0  0  0  0  0  0  0  0  0
   -2.9185    3.8102   -7.2578 H   0  0  0  0  0  0  0  0  0  0  0  0
    3.7818    1.7939  -11.2562 H   0  0  0  0  0  0  0  0  0  0  0  0
    2.2021    3.3046  -10.3435 H   0  0  0  0  0  0  0  0  0  0  0  0
   -1.1153    1.3135  -11.0945 Si  0  0  0  0  0  4  0  0  0  0  0  0
   -1.6657    0.0426  -10.5951 H   0  0  0  0  0  0  0  0  0  0  0  0
   -1.9749    1.7602  -12.1940 H   0  0  0  0  0  0  0  0  0  0  0  0
    0.9437    0.9802  -11.8783 Si  0  0  0  0  0  4  0  0  0  0  0  0
    1.2366   -0.4692  -11.9881 H   0  0  0  0  0  0  0  0  0  0  0  0
    1.1093    1.5456  -13.2235 H   0  0  0  0  0  0  0  0  0  0  0  0
    0.0227    2.6940   -8.5763 H   0  0  0  0  0  0  0  0  0  0  0  0
   -0.8759    4.1922  -10.1664 H   0  0  0  0  0  0  0  0  0  0  0  0
    2.3229    1.7544   -7.5289 H   0  0  0  0  0  0  0  0  0  0  0  0
    3.9780    0.2460   -8.4161 H   0  0  0  0  0  0  0  0  0  0  0  0
   -0.2341   -0.2147   -8.6858 H   0  0  0  0  0  0  0  0  0  0  0  0
    1.2720   -1.6028   -9.8658 H   0  0  0  0  0  0  0  0  0  0  0  0
   -3.7577    0.2985   -4.8844 H   0  0  0  0  0  0  0  0  0  0  0  0
   -2.6097   -1.3062   -6.1960 H   0  0  0  0  0  0  0  0  0  0  0  0
  1  2  1  0
  1  5  1  0
  2  3  1  0
  2  4  1  0
  2 11  1  0
  5  6  1  0
  5  7  1  0
  5  8  1  0
  8  9  1  0
  8 36  1  0
  8 37  1  0
  9 14  1  0
  9 18  1  0
  9 19  1  0
 10 11  1  0
 10 15  1  0
 10 34  1  0
 10 35  1  0
 11 12  1  0
 11 13  1  0
 14 16  1  0
 14 20  1  0
 14 21  1  0
 15 17  1  0
 15 32  1  0
 15 33  1  0
 16 24  1  0
 16 30  1  0
 16 31  1  0
 17 22  1  0
 17 23  1  0
 17 27  1  0
 24 25  1  0
 24 26  1  0
 24 27  1  0
 27 28  1  0
 27 29  1  0
M  CHG  1   1   1
M  RAD  1   1   2
M  END
$$$$
