
     RDKit          3D

 37 37  0  0  0  0  0  0  0  0999 V2000
   -1.3968   -0.3688   -2.4895 S   0  0  0  0  0  2  0  0  0  0  0  0
   -3.4003    0.3197   -2.5350 Si  0  0  0  0  0  4  0  0  0  0  0  0
   -4.3499   -0.7574   -2.9161 H   0  0  0  0  0  0  0  0  0  0  0  0
   -3.7788    0.7938   -1.2191 H   0  0  0  0  0  0  0  0  0  0  0  0
   -0.7034   -1.0345   -4.3934 Si  0  0  0  0  0  4  0  0  0  0  0  0
    0.0581   -2.2964   -4.1651 H   0  0  0  0  0  0  0  0  0  0  0  0
   -1.7940   -1.3803   -5.3064 H   0  0  0  0  0  0  0  0  0  0  0  0
    0.6974    0.4577   -5.2183 Si  0  0  0  0  0  4  0  0  0  0  0  0
    0.6085    0.6385   -7.4113 Si  0  0  0  0  0  4  0  0  0  0  0  0
   -3.8254    1.2046   -5.9955 Si  0  0  0  0  0  4  0  0  0  0  0  0
   -3.6516    2.0456   -3.9640 Si  0  0  0  0  0  4  0  0  0  0  0  0
   -4.8500    2.8317   -3.6064 H   0  0  0  0  0  0  0  0  0  0  0  0
   -2.4390    2.8709   -3.8326 H   0  0  0  0  0  0  0  0  0  0  0  0
   -0.0818   -1.1870   -8.4268 Si  0  0  0  0  0  4  0  0  0  0  0  0
   -4.3955    2.7168   -7.5142 Si  0  0  0  0  0  4  0  0  0  0  0  0
   -2.0156   -0.8901   -9.5055 Si  0  0  0  0  0  4  0  0  0  0  0  0
   -5.1172    1.6233   -9.3306 Si  0  0  0  0  0  4  0  0  0  0  0  0
    1.9474    1.0821   -7.8931 H   0  0  0  0  0  0  0  0  0  0  0  0
   -0.3132    1.7526   -7.7583 H   0  0  0  0  0  0  0  0  0  0  0  0
   -0.2603   -2.2543   -7.4510 H   0  0  0  0  0  0  0  0  0  0  0  0
    0.9338   -1.5635   -9.4483 H   0  0  0  0  0  0  0  0  0  0  0  0
   -6.4517    2.1667   -9.6528 H   0  0  0  0  0  0  0  0  0  0  0  0
   -5.2701    0.1889   -9.0723 H   0  0  0  0  0  0  0  0  0  0  0  0
   -1.9188    0.7691  -10.9579 Si  0  0  0  0  0  4  0  0  0  0  0  0
   -1.6414    0.2337  -12.3212 H   0  0  0  0  0  0  0  0  0  0  0  0
   -0.7766    1.6555  -10.6317 H   0  0  0  0  0  0  0  0  0  0  0  0
   -3.7895    1.9416  -11.0675 Si  0  0  0  0  0  4  0  0  0  0  0  0
   -4.5320    1.6785  -12.3250 H   0  0  0  0  0  0  0  0  0  0  0  0
   -3.4421    3.3885  -11.1141 H   0  0  0  0  0  0  0  0  0  0  0  0
   -2.2776   -2.1501  -10.2583 H   0  0  0  0  0  0  0  0  0  0  0  0
   -3.1352   -0.7145   -8.5904 H   0  0  0  0  0  0  0  0  0  0  0  0
   -3.1541    3.4331   -7.9156 H   0  0  0  0  0  0  0  0  0  0  0  0
   -5.3811    3.6503   -7.0037 H   0  0  0  0  0  0  0  0  0  0  0  0
   -2.5270    0.6355   -6.3827 H   0  0  0  0  0  0  0  0  0  0  0  0
   -4.7841    0.0635   -5.9858 H   0  0  0  0  0  0  0  0  0  0  0  0
    2.0709    0.1457   -4.7365 H   0  0  0  0  0  0  0  0  0  0  0  0
    0.3697    1.7805   -4.6141 H   0  0  0  0  0  0  0  0  0  0  0  0
  1  2  1  0
  1  5  1  0
  2  3  1  0
  2  4  1  0
  2 11  1  0
  5  6  1  0
  5  7  1  0
  5  8  1  0
  8  9  1  0
  8 36  1  0
  8 37  1  0
  9 14  1  0
  9 18  1  0
  9 19  1  0
 10 11  1  0
 10 15  1  0
 10 34  1  0
 10 35  1  0
 11 12  1  0
 11 13  1  0
 14 16  1  0
 14 20  1  0
 14 21  1  0
 15 17  1  0
 15 32  1  0
 15 33  1  0
 16 24  1  0
 16 30  1  0
 16 31  1  0
 17 22  1  0
 17 23  1  0
 17 27  1  0
 24 25  1  0
 24 26  1  0
 24 27  1  0
 27 28  1  0
 27 29  1  0
M  CHG  1   1   1
M  RAD  1   1   2
M  END
$$$$

     RDKit          3D

 37 37  0  0  0  0  0  0  0  0999 V2000
   -1.3968   -0.3688   -2.4895 S   0  0  0  0  0  2  0  0  0  0  0  0
   -0.6385   -2.2825   -3.1691 Si  0  0  0  0  0  4  0  0  0  0  0  0
    0.7805   -2.4138   -2.8075 H   0  0  0  0  0  0  0  0  0  0  0  0
   -1.4610   -3.3088   -2.4683 H   0  0  0  0  0  0  0  0  0  0  0  0
   -3.3736   -0.5376   -1.7377 Si  0  0  0  0  0  4  0  0  0  0  0  0
   -3.6965   -1.8961   -1.2895 H   0  0  0  0  0  0  0  0  0  0  0  0
   -3.4724    0.3286   -0.5284 H   0  0  0  0  0  0  0  0  0  0  0  0
   -4.8944    0.2374   -3.1879 Si  0  0  0  0  0  4  0  0  0  0  0  0
   -4.2195   -0.3083   -5.2523 Si  0  0  0  0  0  4  0  0  0  0  0  0
    0.6225   -3.5709   -6.3913 Si  0  0  0  0  0  4  0  0  0  0  0  0
   -0.9793   -2.4096   -5.3488 Si  0  0  0  0  0  4  0  0  0  0  0  0
   -0.9476   -1.0488   -5.9051 H   0  0  0  0  0  0  0  0  0  0  0  0
   -2.2412   -3.0958   -5.5906 H   0  0  0  0  0  0  0  0  0  0  0  0
   -5.5740    0.5058   -6.8037 Si  0  0  0  0  0  4  0  0  0  0  0  0
    0.1329   -3.4974   -8.5939 Si  0  0  0  0  0  4  0  0  0  0  0  0
   -6.1183   -1.0039   -8.3369 Si  0  0  0  0  0  4  0  0  0  0  0  0
   -1.3447   -1.9008   -9.0269 Si  0  0  0  0  0  4  0  0  0  0  0  0
   -2.8903    0.2823   -5.4428 H   0  0  0  0  0  0  0  0  0  0  0  0
   -4.2214   -1.7624   -5.3446 H   0  0  0  0  0  0  0  0  0  0  0  0
   -6.8056    1.0443   -6.2010 H   0  0  0  0  0  0  0  0  0  0  0  0
   -4.9361    1.6520   -7.5115 H   0  0  0  0  0  0  0  0  0  0  0  0
   -1.6693   -1.1415   -7.8108 H   0  0  0  0  0  0  0  0  0  0  0  0
   -0.7701   -0.9125   -9.9827 H   0  0  0  0  0  0  0  0  0  0  0  0
   -4.8292   -2.7974   -8.2662 Si  0  0  0  0  0  4  0  0  0  0  0  0
   -4.1988   -3.0047   -6.9760 H   0  0  0  0  0  0  0  0  0  0  0  0
   -5.6439   -3.9949   -8.5748 H   0  0  0  0  0  0  0  0  0  0  0  0
   -3.2395   -2.7028   -9.8602 Si  0  0  0  0  0  4  0  0  0  0  0  0
   -3.7463   -1.7405  -10.8783 H   0  0  0  0  0  0  0  0  0  0  0  0
   -3.0748   -3.9875  -10.5120 H   0  0  0  0  0  0  0  0  0  0  0  0
   -7.5195   -1.4191   -8.1405 H   0  0  0  0  0  0  0  0  0  0  0  0
   -6.0412   -0.4330   -9.6961 H   0  0  0  0  0  0  0  0  0  0  0  0
   -0.3934   -4.7720   -9.0537 H   0  0  0  0  0  0  0  0  0  0  0  0
    1.4056   -3.1800   -9.2984 H   0  0  0  0  0  0  0  0  0  0  0  0
    0.5468   -4.9856   -5.9834 H   0  0  0  0  0  0  0  0  0  0  0  0
    1.9328   -2.9845   -6.1323 H   0  0  0  0  0  0  0  0  0  0  0  0
   -6.1493   -0.4790   -2.9221 H   0  0  0  0  0  0  0  0  0  0  0  0
   -5.0190    1.6794   -3.0835 H   0  0  0  0  0  0  0  0  0  0  0  0
  1  2  1  0
  1  5  1  0
  2  3  1  0
  2  4  1  0
  2 11  1  0
  5  6  1  0
  5  7  1  0
  5  8  1  0
  8  9  1  0
  8 36  1  0
  8 37  1  0
  9 14  1  0
  9 18  1  0
  9 19  1  0
 10 11  1  0
 10 15  1  0
 10 34  1  0
 10 35  1  0
 11 12  1  0
 11 13  1  0
 14 16  1  0
 14 20  1  0
 14 21  1  0
 15 17  1  0
 15 32  1  0
 15 33  1  0
 16 24  1  0
 16 30  1  0
 16 31  1  0
 17 22  1  0
 17 23  1  0
 17 27  1  0
 24 25  1  0
 24 26  1  0
 24 27  1  0
 27 28  1  0
 27 29  1  0
M  CHG  1   1   1
M  RAD  1   1   2
M  END
$$$$

     RDKit          3D

 37 37  0  0  0  0  0  0  0  0999 V2000
   -1.3968   -0.3688   -2.4895 S   0  0  0  0  0  2  0  0  0  0  0  0
   -2.9300    0.8933   -3.2187 Si  0  0  0  0  0  4  0  0  0  0  0  0
   -3.6635    1.4993   -2.0846 H   0  0  0  0  0  0  0  0  0  0  0  0
   -3.9087    0.0727   -3.9508 H   0  0  0  0  0  0  0  0  0  0  0  0
    0.1299   -0.7553   -3.9213 Si  0  0  0  0  0  4  0  0  0  0  0  0
    1.4028   -0.9510   -3.1695 H   0  0  0  0  0  0  0  0  0  0  0  0
    0.3324    0.4326   -4.7567 H   0  0  0  0  0  0  0  0  0  0  0  0
   -0.2379   -2.5917   -5.0979 Si  0  0  0  0  0  4  0  0  0  0  0  0
    0.0346   -2.2792   -7.2793 Si  0  0  0  0  0  4  0  0  0  0  0  0
   -3.3054    2.6024   -6.3588 Si  0  0  0  0  0  4  0  0  0  0  0  0
   -2.1318    2.5522   -4.4885 Si  0  0  0  0  0  4  0  0  0  0  0  0
   -0.7136    2.2966   -4.8451 H   0  0  0  0  0  0  0  0  0  0  0  0
   -2.1691    3.8096   -3.7575 H   0  0  0  0  0  0  0  0  0  0  0  0
    1.9771   -1.3491   -7.7733 Si  0  0  0  0  0  4  0  0  0  0  0  0
   -3.1247    4.5135   -7.4515 Si  0  0  0  0  0  4  0  0  0  0  0  0
    1.5978    0.5072   -8.9573 Si  0  0  0  0  0  4  0  0  0  0  0  0
   -1.0686    5.1468   -7.8306 Si  0  0  0  0  0  4  0  0  0  0  0  0
   -0.0138   -3.6127   -7.9281 H   0  0  0  0  0  0  0  0  0  0  0  0
   -1.1009   -1.5161   -7.8656 H   0  0  0  0  0  0  0  0  0  0  0  0
    2.7504   -0.9654   -6.5808 H   0  0  0  0  0  0  0  0  0  0  0  0
    2.8374   -2.2337   -8.5741 H   0  0  0  0  0  0  0  0  0  0  0  0
   -0.7722    6.3536   -7.0193 H   0  0  0  0  0  0  0  0  0  0  0  0
   -0.9222    5.5871   -9.2480 H   0  0  0  0  0  0  0  0  0  0  0  0
   -0.1493    1.5793   -8.0363 Si  0  0  0  0  0  4  0  0  0  0  0  0
   -0.6691    0.8402   -6.9002 H   0  0  0  0  0  0  0  0  0  0  0  0
   -1.2489    1.7070   -9.0212 H   0  0  0  0  0  0  0  0  0  0  0  0
    0.4606    3.6166   -7.4292 Si  0  0  0  0  0  4  0  0  0  0  0  0
    1.6802    3.9716   -8.2130 H   0  0  0  0  0  0  0  0  0  0  0  0
    0.9056    3.6319   -6.0085 H   0  0  0  0  0  0  0  0  0  0  0  0
    2.8032    1.3551   -8.8478 H   0  0  0  0  0  0  0  0  0  0  0  0
    1.2759    0.2194  -10.3452 H   0  0  0  0  0  0  0  0  0  0  0  0
   -3.8545    4.3749   -8.7261 H   0  0  0  0  0  0  0  0  0  0  0  0
   -3.8667    5.5495   -6.6774 H   0  0  0  0  0  0  0  0  0  0  0  0
   -2.9596    1.4805   -7.2188 H   0  0  0  0  0  0  0  0  0  0  0  0
   -4.7424    2.4290   -5.9949 H   0  0  0  0  0  0  0  0  0  0  0  0
    0.6839   -3.6911   -4.6927 H   0  0  0  0  0  0  0  0  0  0  0  0
   -1.5979   -3.1120   -4.8828 H   0  0  0  0  0  0  0  0  0  0  0  0
  1  2  1  0
  1  5  1  0
  2  3  1  0
  2  4  1  0
  2 11  1  0
  5  6  1  0
  5  7  1  0
  5  8  1  0
  8  9  1  0
  8 36  1  0
  8 37  1  0
  9 14  1  0
  9 18  1  0
  9 19  1  0
 10 11  1  0
 10 15  1  0
 10 34  1  0
 10 35  1  0
 11 12  1  0
 11 13  1  0
 14 16  1  0
 14 20  1  0
 14 21  1  0
 15 17  1  0
 15 32  1  0
 15 33  1  0
 16 24  1  0
 16 30  1  0
 16 31  1  0
 17 22  1  0
 17 23  1  0
 17 27  1  0
 24 25  1  0
 24 26  1  0
 24 27  1  0
 27 28  1  0
 27 29  1  0
M  CHG  1   1   1
M  RAD  1   1   2
M  END
$$$$

     RDKit          3D

 37 37  0  0  0  0  0  0  0  0999 V2000
   -1.3968   -0.3688   -2.4895 S   0  0  0  0  0  2  0  0  0  0  0  0
   -2.8803   -0.5392   -4.0182 Si  0  0  0  0  0  4  0  0  0  0  0  0
   -2.2838   -1.1752   -5.1734 H   0  0  0  0  0  0  0  0  0  0  0  0
   -3.9262   -1.4694   -3.5019 H   0  0  0  0  0  0  0  0  0  0  0  0
    0.5089   -1.0887   -3.1472 Si  0  0  0  0  0  4  0  0  0  0  0  0
    1.0750   -0.2422   -4.2111 H   0  0  0  0  0  0  0  0  0  0  0  0
    1.4130   -1.0098   -1.9744 H   0  0  0  0  0  0  0  0  0  0  0  0
    0.4376   -3.1876   -3.8274 Si  0  0  0  0  0  4  0  0  0  0  0  0
    0.3724   -3.3462   -6.0585 Si  0  0  0  0  0  4  0  0  0  0  0  0
   -2.6052    2.8113   -5.5441 Si  0  0  0  0  0  4  0  0  0  0  0  0
   -3.8678    1.3807   -4.4648 Si  0  0  0  0  0  4  0  0  0  0  0  0
   -4.3021    1.9896   -3.1891 H   0  0  0  0  0  0  0  0  0  0  0  0
   -5.0986    1.1060   -5.2435 H   0  0  0  0  0  0  0  0  0  0  0  0
    2.4452   -3.2397   -6.9193 Si  0  0  0  0  0  4  0  0  0  0  0  0
   -1.4030    1.9600   -7.1621 Si  0  0  0  0  0  4  0  0  0  0  0  0
    2.3955   -2.1849   -8.9055 Si  0  0  0  0  0  4  0  0  0  0  0  0
   -2.3815    0.3313   -8.2780 Si  0  0  0  0  0  4  0  0  0  0  0  0
   -0.4911   -2.3273   -6.6402 H   0  0  0  0  0  0  0  0  0  0  0  0
   -0.1335   -4.7118   -6.3730 H   0  0  0  0  0  0  0  0  0  0  0  0
    3.2639   -2.4071   -6.0240 H   0  0  0  0  0  0  0  0  0  0  0  0
    3.0003   -4.5642   -7.1357 H   0  0  0  0  0  0  0  0  0  0  0  0
   -3.4729    0.8880   -9.0823 H   0  0  0  0  0  0  0  0  0  0  0  0
   -2.9099   -0.7270   -7.4465 H   0  0  0  0  0  0  0  0  0  0  0  0
    1.1491   -0.3193   -8.7386 Si  0  0  0  0  0  4  0  0  0  0  0  0
    1.8362    0.8179   -9.3881 H   0  0  0  0  0  0  0  0  0  0  0  0
    1.0633    0.0014   -7.3091 H   0  0  0  0  0  0  0  0  0  0  0  0
   -0.8502   -0.5980   -9.6475 Si  0  0  0  0  0  4  0  0  0  0  0  0
   -0.9213    0.1582  -10.9226 H   0  0  0  0  0  0  0  0  0  0  0  0
   -1.1656   -1.9940   -9.9199 H   0  0  0  0  0  0  0  0  0  0  0  0
    1.9124   -3.0557   -9.9594 H   0  0  0  0  0  0  0  0  0  0  0  0
    3.7830   -1.7355   -9.1821 H   0  0  0  0  0  0  0  0  0  0  0  0
   -0.0817    1.5487   -6.6178 H   0  0  0  0  0  0  0  0  0  0  0  0
   -1.0944    3.0482   -8.1356 H   0  0  0  0  0  0  0  0  0  0  0  0
   -1.6929    3.4719   -4.5669 H   0  0  0  0  0  0  0  0  0  0  0  0
   -3.4536    3.8929   -6.0839 H   0  0  0  0  0  0  0  0  0  0  0  0
   -0.6673   -3.9500   -3.2108 H   0  0  0  0  0  0  0  0  0  0  0  0
    1.6865   -3.8803   -3.3996 H   0  0  0  0  0  0  0  0  0  0  0  0
  1  2  1  0
  1  5  1  0
  2  3  1  0
  2  4  1  0
  2 11  1  0
  5  6  1  0
  5  7  1  0
  5  8  1  0
  8  9  1  0
  8 36  1  0
  8 37  1  0
  9 14  1  0
  9 18  1  0
  9 19  1  0
 10 11  1  0
 10 15  1  0
 10 34  1  0
 10 35  1  0
 11 12  1  0
 11 13  1  0
 14 16  1  0
 14 20  1  0
 14 21  1  0
 15 17  1  0
 15 32  1  0
 15 33  1  0
 16 24  1  0
 16 30  1  0
 16 31  1  0
 17 22  1  0
 17 23  1  0
 17 27  1  0
 24 25  1  0
 24 26  1  0
 24 27  1  0
 27 28  1  0
 27 29  1  0
M  CHG  1   1   1
M  RAD  1   1   2
M  END
$$$$

     RDKit          3D

 37 37  0  0  0  0  0  0  0  0999 V2000
   -1.3968   -0.3688   -2.4895 S   0  0  0  0  0  2  0  0  0  0  0  0
   -3.1873    0.7269   -2.8237 Si  0  0  0  0  0  4  0  0  0  0  0  0
   -4.0061    0.7536   -1.6032 H   0  0  0  0  0  0  0  0  0  0  0  0
   -3.9710    0.0306   -3.8611 H   0  0  0  0  0  0  0  0  0  0  0  0
   -0.9114   -1.6193   -4.1892 Si  0  0  0  0  0  4  0  0  0  0  0  0
   -0.1948   -2.7935   -3.6740 H   0  0  0  0  0  0  0  0  0  0  0  0
   -2.1124   -2.0623   -4.8817 H   0  0  0  0  0  0  0  0  0  0  0  0
    0.4783   -0.4769   -5.4875 Si  0  0  0  0  0  4  0  0  0  0  0  0
    0.2102   -1.0051   -7.6493 Si  0  0  0  0  0  4  0  0  0  0  0  0
   -3.6629    3.1086   -5.5918 Si  0  0  0  0  0  4  0  0  0  0  0  0
   -2.7629    2.8067   -3.5542 Si  0  0  0  0  0  4  0  0  0  0  0  0
   -3.3489    3.7743   -2.6142 H   0  0  0  0  0  0  0  0  0  0  0  0
   -1.3145    3.0527   -3.5736 H   0  0  0  0  0  0  0  0  0  0  0  0
    1.1517    0.6713   -8.8285 Si  0  0  0  0  0  4  0  0  0  0  0  0
   -4.2125    1.1019   -6.3862 Si  0  0  0  0  0  4  0  0  0  0  0  0
   -0.1148    2.4881   -8.5003 Si  0  0  0  0  0  4  0  0  0  0  0  0
   -4.2910    1.0613   -8.5946 Si  0  0  0  0  0  4  0  0  0  0  0  0
   -1.2261   -0.9932   -7.9778 H   0  0  0  0  0  0  0  0  0  0  0  0
    0.8259   -2.2828   -7.9790 H   0  0  0  0  0  0  0  0  0  0  0  0
    1.2756    0.3299  -10.2330 H   0  0  0  0  0  0  0  0  0  0  0  0
    2.4557    0.9389   -8.1842 H   0  0  0  0  0  0  0  0  0  0  0  0
   -5.6577    0.7265   -9.0088 H   0  0  0  0  0  0  0  0  0  0  0  0
   -3.4124   -0.0326   -9.0728 H   0  0  0  0  0  0  0  0  0  0  0  0
   -1.5023    2.7421  -10.2054 Si  0  0  0  0  0  4  0  0  0  0  0  0
   -1.0732    3.8870  -11.0017 H   0  0  0  0  0  0  0  0  0  0  0  0
   -1.4714    1.5605  -11.0980 H   0  0  0  0  0  0  0  0  0  0  0  0
   -3.6258    2.9616   -9.5166 Si  0  0  0  0  0  4  0  0  0  0  0  0
   -4.4448    3.1887  -10.7296 H   0  0  0  0  0  0  0  0  0  0  0  0
   -3.7870    4.1159   -8.6425 H   0  0  0  0  0  0  0  0  0  0  0  0
   -0.9304    2.3304   -7.2715 H   0  0  0  0  0  0  0  0  0  0  0  0
    0.7305    3.6786   -8.2746 H   0  0  0  0  0  0  0  0  0  0  0  0
   -5.5183    0.7271   -5.7938 H   0  0  0  0  0  0  0  0  0  0  0  0
   -3.2108    0.1378   -5.8673 H   0  0  0  0  0  0  0  0  0  0  0  0
   -2.6457    3.7732   -6.4115 H   0  0  0  0  0  0  0  0  0  0  0  0
   -4.8324    3.9711   -5.5126 H   0  0  0  0  0  0  0  0  0  0  0  0
    0.1178    0.9625   -5.3632 H   0  0  0  0  0  0  0  0  0  0  0  0
    1.8789   -0.6856   -5.1554 H   0  0  0  0  0  0  0  0  0  0  0  0
  1  2  1  0
  1  5  1  0
  2  3  1  0
  2  4  1  0
  2 11  1  0
  5  6  1  0
  5  7  1  0
  5  8  1  0
  8  9  1  0
  8 36  1  0
  8 37  1  0
  9 14  1  0
  9 18  1  0
  9 19  1  0
 10 11  1  0
 10 15  1  0
 10 34  1  0
 10 35  1  0
 11 12  1  0
 11 13  1  0
 14 16  1  0
 14 20  1  0
 14 21  1  0
 15 17  1  0
 15 32  1  0
 15 33  1  0
 16 24  1  0
 16 30  1  0
 16 31  1  0
 17 22  1  0
 17 23  1  0
 17 27  1  0
 24 25  1  0
 24 26  1  0
 24 27  1  0
 27 28  1  0
 27 29  1  0
M  CHG  1   1   1
M  RAD  1   1   2
M  END
$$$$

     RDKit          3D

 37 37  0  0  0  0  0  0  0  0999 V2000
   -1.3968   -0.3688   -2.4895 S   0  0  0  0  0  2  0  0  0  0  0  0
   -2.5375    1.1291   -3.5226 Si  0  0  0  0  0  4  0  0  0  0  0  0
   -1.7655    1.6555   -4.6478 H   0  0  0  0  0  0  0  0  0  0  0  0
   -2.7155    2.2576   -2.5704 H   0  0  0  0  0  0  0  0  0  0  0  0
    0.5243   -0.6527   -3.4516 Si  0  0  0  0  0  4  0  0  0  0  0  0
    1.5608   -0.6853   -2.3985 H   0  0  0  0  0  0  0  0  0  0  0  0
    0.7346    0.4559   -4.3773 H   0  0  0  0  0  0  0  0  0  0  0  0
    0.4739   -2.6209   -4.4758 Si  0  0  0  0  0  4  0  0  0  0  0  0
    2.2061   -2.8663   -5.8760 Si  0  0  0  0  0  4  0  0  0  0  0  0
   -4.6787   -0.0249   -6.2949 Si  0  0  0  0  0  4  0  0  0  0  0  0
   -4.5348    0.3786   -4.1090 Si  0  0  0  0  0  4  0  0  0  0  0  0
   -4.8709   -0.8744   -3.4026 H   0  0  0  0  0  0  0  0  0  0  0  0
   -5.5804    1.3642   -3.7722 H   0  0  0  0  0  0  0  0  0  0  0  0
    1.5470   -4.3280   -7.4622 Si  0  0  0  0  0  4  0  0  0  0  0  0
   -4.2104    1.7999   -7.4792 Si  0  0  0  0  0  4  0  0  0  0  0  0
   -0.4549   -3.5932   -8.1932 Si  0  0  0  0  0  4  0  0  0  0  0  0
   -2.2597    1.4799   -8.5245 Si  0  0  0  0  0  4  0  0  0  0  0  0
    2.6147   -1.5980   -6.4654 H   0  0  0  0  0  0  0  0  0  0  0  0
    3.3307   -3.4761   -5.1685 H   0  0  0  0  0  0  0  0  0  0  0  0
    1.4214   -5.6296   -6.8073 H   0  0  0  0  0  0  0  0  0  0  0  0
    2.5079   -4.3721   -8.5650 H   0  0  0  0  0  0  0  0  0  0  0  0
   -2.4796    1.0067   -9.9089 H   0  0  0  0  0  0  0  0  0  0  0  0
   -1.5254    2.7553   -8.6302 H   0  0  0  0  0  0  0  0  0  0  0  0
   -0.1937   -1.4779   -8.8298 Si  0  0  0  0  0  4  0  0  0  0  0  0
    1.2435   -1.1422   -8.9860 H   0  0  0  0  0  0  0  0  0  0  0  0
   -0.7959   -1.3335  -10.1635 H   0  0  0  0  0  0  0  0  0  0  0  0
   -1.0704   -0.0461   -7.3896 Si  0  0  0  0  0  4  0  0  0  0  0  0
   -0.0090    0.7073   -6.6685 H   0  0  0  0  0  0  0  0  0  0  0  0
   -1.8940   -0.6836   -6.3662 H   0  0  0  0  0  0  0  0  0  0  0  0
   -1.4143   -3.7070   -7.0833 H   0  0  0  0  0  0  0  0  0  0  0  0
   -0.9203   -4.4484   -9.3046 H   0  0  0  0  0  0  0  0  0  0  0  0
   -5.2278    2.0229   -8.5248 H   0  0  0  0  0  0  0  0  0  0  0  0
   -4.1779    3.0122   -6.6369 H   0  0  0  0  0  0  0  0  0  0  0  0
   -3.8473   -1.1702   -6.7009 H   0  0  0  0  0  0  0  0  0  0  0  0
   -6.0779   -0.4033   -6.5812 H   0  0  0  0  0  0  0  0  0  0  0  0
   -0.8032   -2.7000   -5.2271 H   0  0  0  0  0  0  0  0  0  0  0  0
    0.5761   -3.6698   -3.4674 H   0  0  0  0  0  0  0  0  0  0  0  0
  1  2  1  0
  1  5  1  0
  2  3  1  0
  2  4  1  0
  2 11  1  0
  5  6  1  0
  5  7  1  0
  5  8  1  0
  8  9  1  0
  8 36  1  0
  8 37  1  0
  9 14  1  0
  9 18  1  0
  9 19  1  0
 10 11  1  0
 10 15  1  0
 10 34  1  0
 10 35  1  0
 11 12  1  0
 11 13  1  0
 14 16  1  0
 14 20  1  0
 14 21  1  0
 15 17  1  0
 15 32  1  0
 15 33  1  0
 16 24  1  0
 16 30  1  0
 16 31  1  0
 17 22  1  0
 17 23  1  0
 17 27  1  0
 24 25  1  0
 24 26  1  0
 24 27  1  0
 27 28  1  0
 27 29  1  0
M  CHG  1   1   1
M  RAD  1   1   2
M  END
$$$$

     RDKit          3D

 37 37  0  0  0  0  0  0  0  0999 V2000
   -1.3968   -0.3688   -2.4895 S   0  0  0  0  0  2  0  0  0  0  0  0
   -2.2642    1.2443   -3.5483 Si  0  0  0  0  0  4  0  0  0  0  0  0
   -2.7030    2.2909   -2.5978 H   0  0  0  0  0  0  0  0  0  0  0  0
   -3.4812    0.7653   -4.2242 H   0  0  0  0  0  0  0  0  0  0  0  0
   -0.1398   -1.5912   -3.6961 Si  0  0  0  0  0  4  0  0  0  0  0  0
    0.9278   -2.1387   -2.8105 H   0  0  0  0  0  0  0  0  0  0  0  0
    0.5465   -0.7600   -4.6903 H   0  0  0  0  0  0  0  0  0  0  0  0
   -1.2095   -3.3085   -4.5899 Si  0  0  0  0  0  4  0  0  0  0  0  0
   -0.7964   -3.5387   -6.7594 Si  0  0  0  0  0  4  0  0  0  0  0  0
   -1.8524    2.3506   -6.9436 Si  0  0  0  0  0  4  0  0  0  0  0  0
   -0.8343    2.1794   -4.9912 Si  0  0  0  0  0  4  0  0  0  0  0  0
    0.3597    1.3159   -5.1721 H   0  0  0  0  0  0  0  0  0  0  0  0
   -0.3642    3.4574   -4.4789 H   0  0  0  0  0  0  0  0  0  0  0  0
    1.3646   -3.5735   -7.2189 Si  0  0  0  0  0  4  0  0  0  0  0  0
   -0.8848    3.7922   -8.3091 Si  0  0  0  0  0  4  0  0  0  0  0  0
    1.8008   -1.9734   -8.7159 Si  0  0  0  0  0  4  0  0  0  0  0  0
    1.2560    3.4666   -8.5976 Si  0  0  0  0  0  4  0  0  0  0  0  0
   -1.3773   -4.8355   -7.1866 H   0  0  0  0  0  0  0  0  0  0  0  0
   -1.5086   -2.5066   -7.5614 H   0  0  0  0  0  0  0  0  0  0  0  0
    2.2072   -3.3196   -6.0388 H   0  0  0  0  0  0  0  0  0  0  0  0
    1.7991   -4.8597   -7.7855 H   0  0  0  0  0  0  0  0  0  0  0  0
    2.0083    4.5803   -7.9679 H   0  0  0  0  0  0  0  0  0  0  0  0
    1.5939    3.5423  -10.0483 H   0  0  0  0  0  0  0  0  0  0  0  0
    0.6328   -0.1414   -8.1417 Si  0  0  0  0  0  4  0  0  0  0  0  0
   -0.1635   -0.3873   -6.9532 H   0  0  0  0  0  0  0  0  0  0  0  0
   -0.3008    0.2327   -9.2298 H   0  0  0  0  0  0  0  0  0  0  0  0
    2.0152    1.5543   -7.8182 Si  0  0  0  0  0  4  0  0  0  0  0  0
    3.2858    1.2398   -8.5352 H   0  0  0  0  0  0  0  0  0  0  0  0
    2.4035    1.6511   -6.3841 H   0  0  0  0  0  0  0  0  0  0  0  0
    3.2460   -1.6754   -8.6359 H   0  0  0  0  0  0  0  0  0  0  0  0
    1.4122   -2.3581  -10.0627 H   0  0  0  0  0  0  0  0  0  0  0  0
   -1.5858    3.7257   -9.6055 H   0  0  0  0  0  0  0  0  0  0  0  0
   -1.1488    5.1619   -7.7824 H   0  0  0  0  0  0  0  0  0  0  0  0
   -1.9834    1.0469   -7.5768 H   0  0  0  0  0  0  0  0  0  0  0  0
   -3.2398    2.8379   -6.6882 H   0  0  0  0  0  0  0  0  0  0  0  0
   -0.8273   -4.5900   -3.9311 H   0  0  0  0  0  0  0  0  0  0  0  0
   -2.6666   -3.1907   -4.4178 H   0  0  0  0  0  0  0  0  0  0  0  0
  1  2  1  0
  1  5  1  0
  2  3  1  0
  2  4  1  0
  2 11  1  0
  5  6  1  0
  5  7  1  0
  5  8  1  0
  8  9  1  0
  8 36  1  0
  8 37  1  0
  9 14  1  0
  9 18  1  0
  9 19  1  0
 10 11  1  0
 10 15  1  0
 10 34  1  0
 10 35  1  0
 11 12  1  0
 11 13  1  0
 14 16  1  0
 14 20  1  0
 14 21  1  0
 15 17  1  0
 15 32  1  0
 15 33  1  0
 16 24  1  0
 16 30  1  0
 16 31  1  0
 17 22  1  0
 17 23  1  0
 17 27  1  0
 24 25  1  0
 24 26  1  0
 24 27  1  0
 27 28  1  0
 27 29  1  0
M  CHG  1   1   1
M  RAD  1   1   2
M  END
$$$$

     RDKit          3D

 37 37  0  0  0  0  0  0  0  0999 V2000
   -1.3968   -0.3688   -2.4895 S   0  0  0  0  0  2  0  0  0  0  0  0
   -2.4068    1.0717   -3.7260 Si  0  0  0  0  0  4  0  0  0  0  0  0
   -3.8582    0.7497   -3.6476 H   0  0  0  0  0  0  0  0  0  0  0  0
   -2.2521    2.4238   -3.2039 H   0  0  0  0  0  0  0  0  0  0  0  0
    0.2249   -1.2733   -3.5315 Si  0  0  0  0  0  4  0  0  0  0  0  0
    0.5115   -0.5944   -4.7909 H   0  0  0  0  0  0  0  0  0  0  0  0
    1.4374   -1.1265   -2.6827 H   0  0  0  0  0  0  0  0  0  0  0  0
   -0.0958   -3.4644   -3.8164 Si  0  0  0  0  0  4  0  0  0  0  0  0
   -1.3675   -3.9008   -5.5730 Si  0  0  0  0  0  4  0  0  0  0  0  0
   -0.0008    2.1459   -6.3059 Si  0  0  0  0  0  4  0  0  0  0  0  0
   -1.7942    0.9158   -5.8428 Si  0  0  0  0  0  4  0  0  0  0  0  0
   -1.5586   -0.4782   -6.1962 H   0  0  0  0  0  0  0  0  0  0  0  0
   -2.9059    1.4051   -6.6871 H   0  0  0  0  0  0  0  0  0  0  0  0
   -0.1604   -4.4116   -7.3802 Si  0  0  0  0  0  4  0  0  0  0  0  0
    0.9198    1.3569   -8.1845 Si  0  0  0  0  0  4  0  0  0  0  0  0
    1.9181   -4.9574   -6.8674 Si  0  0  0  0  0  4  0  0  0  0  0  0
    1.0292   -0.8760   -8.0966 Si  0  0  0  0  0  4  0  0  0  0  0  0
   -2.2723   -5.0248   -5.2070 H   0  0  0  0  0  0  0  0  0  0  0  0
   -2.2674   -2.7523   -5.8506 H   0  0  0  0  0  0  0  0  0  0  0  0
   -0.7864   -5.6124   -7.9976 H   0  0  0  0  0  0  0  0  0  0  0  0
   -0.2527   -3.3541   -8.3842 H   0  0  0  0  0  0  0  0  0  0  0  0
    0.6586   -1.3895   -9.4229 H   0  0  0  0  0  0  0  0  0  0  0  0
    0.1488   -1.3469   -7.0432 H   0  0  0  0  0  0  0  0  0  0  0  0
    3.1712   -3.2526   -6.2606 Si  0  0  0  0  0  4  0  0  0  0  0  0
    2.8349   -2.7662   -4.9001 H   0  0  0  0  0  0  0  0  0  0  0  0
    4.5670   -3.7183   -6.1868 H   0  0  0  0  0  0  0  0  0  0  0  0
    3.0987   -1.5427   -7.6544 Si  0  0  0  0  0  4  0  0  0  0  0  0
    3.8284   -1.8333   -8.9211 H   0  0  0  0  0  0  0  0  0  0  0  0
    3.8088   -0.4104   -7.0360 H   0  0  0  0  0  0  0  0  0  0  0  0
    1.8752   -5.9226   -5.7577 H   0  0  0  0  0  0  0  0  0  0  0  0
    2.5353   -5.6395   -8.0076 H   0  0  0  0  0  0  0  0  0  0  0  0
    2.2445    1.9527   -8.4288 H   0  0  0  0  0  0  0  0  0  0  0  0
    0.0625    1.7694   -9.3309 H   0  0  0  0  0  0  0  0  0  0  0  0
    0.9896    2.1261   -5.2402 H   0  0  0  0  0  0  0  0  0  0  0  0
   -0.4606    3.5246   -6.6013 H   0  0  0  0  0  0  0  0  0  0  0  0
   -0.7568   -3.9620   -2.5774 H   0  0  0  0  0  0  0  0  0  0  0  0
    1.1683   -4.1947   -3.9268 H   0  0  0  0  0  0  0  0  0  0  0  0
  1  2  1  0
  1  5  1  0
  2  3  1  0
  2  4  1  0
  2 11  1  0
  5  6  1  0
  5  7  1  0
  5  8  1  0
  8  9  1  0
  8 36  1  0
  8 37  1  0
  9 14  1  0
  9 18  1  0
  9 19  1  0
 10 11  1  0
 10 15  1  0
 10 34  1  0
 10 35  1  0
 11 12  1  0
 11 13  1  0
 14 16  1  0
 14 20  1  0
 14 21  1  0
 15 17  1  0
 15 32  1  0
 15 33  1  0
 16 24  1  0
 16 30  1  0
 16 31  1  0
 17 22  1  0
 17 23  1  0
 17 27  1  0
 24 25  1  0
 24 26  1  0
 24 27  1  0
 27 28  1  0
 27 29  1  0
M  CHG  1   1   1
M  RAD  1   1   2
M  END
$$$$

     RDKit          3D

 37 37  0  0  0  0  0  0  0  0999 V2000
   -1.3968   -0.3688   -2.4895 S   0  0  0  0  0  2  0  0  0  0  0  0
   -3.1591    0.7665   -2.8410 Si  0  0  0  0  0  4  0  0  0  0  0  0
   -3.9807    0.8257   -1.6235 H   0  0  0  0  0  0  0  0  0  0  0  0
   -3.9563    0.0787   -3.8737 H   0  0  0  0  0  0  0  0  0  0  0  0
   -0.9367   -1.6482   -4.1746 Si  0  0  0  0  0  4  0  0  0  0  0  0
   -0.2504   -2.8341   -3.6450 H   0  0  0  0  0  0  0  0  0  0  0  0
   -2.1459   -2.0692   -4.8666 H   0  0  0  0  0  0  0  0  0  0  0  0
    0.4843   -0.5534   -5.4799 Si  0  0  0  0  0  4  0  0  0  0  0  0
    0.2101   -1.0973   -7.6371 Si  0  0  0  0  0  4  0  0  0  0  0  0
   -3.5682    3.1302   -5.6350 Si  0  0  0  0  0  4  0  0  0  0  0  0
   -2.6820    2.8277   -3.5914 Si  0  0  0  0  0  4  0  0  0  0  0  0
   -3.2473    3.8189   -2.6633 H   0  0  0  0  0  0  0  0  0  0  0  0
   -1.2280    3.0383   -3.6085 H   0  0  0  0  0  0  0  0  0  0  0  0
    1.1957    0.5434   -8.8304 Si  0  0  0  0  0  4  0  0  0  0  0  0
   -4.1639    1.1293   -6.4105 Si  0  0  0  0  0  4  0  0  0  0  0  0
   -0.0272    2.3937   -8.5251 Si  0  0  0  0  0  4  0  0  0  0  0  0
   -4.2365    1.0678   -8.6186 Si  0  0  0  0  0  4  0  0  0  0  0  0
   -1.2244   -1.0540   -7.9705 H   0  0  0  0  0  0  0  0  0  0  0  0
    0.7956   -2.3930   -7.9515 H   0  0  0  0  0  0  0  0  0  0  0  0
    1.3156    0.1845  -10.2309 H   0  0  0  0  0  0  0  0  0  0  0  0
    2.5039    0.7859   -8.1845 H   0  0  0  0  0  0  0  0  0  0  0  0
   -5.6097    0.7619   -9.0339 H   0  0  0  0  0  0  0  0  0  0  0  0
   -3.3834   -0.0521   -9.0826 H   0  0  0  0  0  0  0  0  0  0  0  0
   -1.4029    2.6635  -10.2374 Si  0  0  0  0  0  4  0  0  0  0  0  0
   -0.9437    3.7895  -11.0439 H   0  0  0  0  0  0  0  0  0  0  0  0
   -1.3980    1.4723  -11.1176 H   0  0  0  0  0  0  0  0  0  0  0  0
   -3.5225    2.9417   -9.5579 Si  0  0  0  0  0  4  0  0  0  0  0  0
   -4.3320    3.1760  -10.7759 H   0  0  0  0  0  0  0  0  0  0  0  0
   -3.6583    4.1085   -8.6962 H   0  0  0  0  0  0  0  0  0  0  0  0
   -0.8502    2.2686   -7.2974 H   0  0  0  0  0  0  0  0  0  0  0  0
    0.8460    3.5656   -8.3088 H   0  0  0  0  0  0  0  0  0  0  0  0
   -5.4803    0.7924   -5.8187 H   0  0  0  0  0  0  0  0  0  0  0  0
   -3.1876    0.1466   -5.8784 H   0  0  0  0  0  0  0  0  0  0  0  0
   -2.5326    3.7614   -6.4581 H   0  0  0  0  0  0  0  0  0  0  0  0
   -4.7166    4.0216   -5.5686 H   0  0  0  0  0  0  0  0  0  0  0  0
    0.1586    0.8954   -5.3717 H   0  0  0  0  0  0  0  0  0  0  0  0
    1.8785   -0.7926   -5.1410 H   0  0  0  0  0  0  0  0  0  0  0  0
  1  2  1  0
  1  5  1  0
  2  3  1  0
  2  4  1  0
  2 11  1  0
  5  6  1  0
  5  7  1  0
  5  8  1  0
  8  9  1  0
  8 36  1  0
  8 37  1  0
  9 14  1  0
  9 18  1  0
  9 19  1  0
 10 11  1  0
 10 15  1  0
 10 34  1  0
 10 35  1  0
 11 12  1  0
 11 13  1  0
 14 16  1  0
 14 20  1  0
 14 21  1  0
 15 17  1  0
 15 32  1  0
 15 33  1  0
 16 24  1  0
 16 30  1  0
 16 31  1  0
 17 22  1  0
 17 23  1  0
 17 27  1  0
 24 25  1  0
 24 26  1  0
 24 27  1  0
 27 28  1  0
 27 29  1  0
M  CHG  1   1   1
M  RAD  1   1   2
M  END
$$$$

     RDKit          3D

 37 37  0  0  0  0  0  0  0  0999 V2000
   -1.3968   -0.3688   -2.4895 S   0  0  0  0  0  2  0  0  0  0  0  0
   -2.4975    1.1456   -3.5417 Si  0  0  0  0  0  4  0  0  0  0  0  0
   -1.7095    1.6413   -4.6697 H   0  0  0  0  0  0  0  0  0  0  0  0
   -2.6511    2.2878   -2.6018 H   0  0  0  0  0  0  0  0  0  0  0  0
    0.5198   -0.7091   -3.4422 Si  0  0  0  0  0  4  0  0  0  0  0  0
    1.5520   -0.7560   -2.3854 H   0  0  0  0  0  0  0  0  0  0  0  0
    0.7599    0.3843   -4.3786 H   0  0  0  0  0  0  0  0  0  0  0  0
    0.4248   -2.6861   -4.4463 Si  0  0  0  0  0  4  0  0  0  0  0  0
    2.1548   -2.9880   -5.8381 Si  0  0  0  0  0  4  0  0  0  0  0  0
   -4.6576    0.0152   -6.3091 Si  0  0  0  0  0  4  0  0  0  0  0  0
   -4.5107    0.4377   -4.1270 Si  0  0  0  0  0  4  0  0  0  0  0  0
   -4.8794   -0.7994   -3.4090 H   0  0  0  0  0  0  0  0  0  0  0  0
   -5.5331    1.4518   -3.8039 H   0  0  0  0  0  0  0  0  0  0  0  0
    1.4652   -4.4496   -7.4114 Si  0  0  0  0  0  4  0  0  0  0  0  0
   -4.1415    1.8157   -7.5106 Si  0  0  0  0  0  4  0  0  0  0  0  0
   -0.5159   -3.6741   -8.1566 Si  0  0  0  0  0  4  0  0  0  0  0  0
   -2.1959    1.4376   -8.5460 Si  0  0  0  0  0  4  0  0  0  0  0  0
    2.5958   -1.7361   -6.4391 H   0  0  0  0  0  0  0  0  0  0  0  0
    3.2621   -3.6175   -5.1206 H   0  0  0  0  0  0  0  0  0  0  0  0
    1.3060   -5.7409   -6.7436 H   0  0  0  0  0  0  0  0  0  0  0  0
    2.4281   -4.5285   -8.5105 H   0  0  0  0  0  0  0  0  0  0  0  0
   -2.4230    0.9556   -9.9262 H   0  0  0  0  0  0  0  0  0  0  0  0
   -1.4305    2.6937   -8.6624 H   0  0  0  0  0  0  0  0  0  0  0  0
   -0.2015   -1.5725   -8.8140 Si  0  0  0  0  0  4  0  0  0  0  0  0
    1.2439   -1.2733   -8.9689 H   0  0  0  0  0  0  0  0  0  0  0  0
   -0.7959   -1.4273  -10.1511 H   0  0  0  0  0  0  0  0  0  0  0  0
   -1.0476   -0.1049   -7.3916 Si  0  0  0  0  0  4  0  0  0  0  0  0
    0.0296    0.6299   -6.6747 H   0  0  0  0  0  0  0  0  0  0  0  0
   -1.8895   -0.7116   -6.3644 H   0  0  0  0  0  0  0  0  0  0  0  0
   -1.4812   -3.7530   -7.0487 H   0  0  0  0  0  0  0  0  0  0  0  0
   -0.9986   -4.5292   -9.2606 H   0  0  0  0  0  0  0  0  0  0  0  0
   -5.1500    2.0524   -8.5618 H   0  0  0  0  0  0  0  0  0  0  0  0
   -4.0822    3.0355   -6.6807 H   0  0  0  0  0  0  0  0  0  0  0  0
   -3.8531   -1.1542   -6.7006 H   0  0  0  0  0  0  0  0  0  0  0  0
   -6.0647   -0.3321   -6.5962 H   0  0  0  0  0  0  0  0  0  0  0  0
   -0.8516   -2.7419   -5.2009 H   0  0  0  0  0  0  0  0  0  0  0  0
    0.4983   -3.7266   -3.4268 H   0  0  0  0  0  0  0  0  0  0  0  0
  1  2  1  0
  1  5  1  0
  2  3  1  0
  2  4  1  0
  2 11  1  0
  5  6  1  0
  5  7  1  0
  5  8  1  0
  8  9  1  0
  8 36  1  0
  8 37  1  0
  9 14  1  0
  9 18  1  0
  9 19  1  0
 10 11  1  0
 10 15  1  0
 10 34  1  0
 10 35  1  0
 11 12  1  0
 11 13  1  0
 14 16  1  0
 14 20  1  0
 14 21  1  0
 15 17  1  0
 15 32  1  0
 15 33  1  0
 16 24  1  0
 16 30  1  0
 16 31  1  0
 17 22  1  0
 17 23  1  0
 17 27  1  0
 24 25  1  0
 24 26  1  0
 24 27  1  0
 27 28  1  0
 27 29  1  0
M  CHG  1   1   1
M  RAD  1   1   2
M  END
$$$$
