
     RDKit          3D

 37 37  0  0  0  0  0  0  0  0999 V2000
   -0.0004    0.6559    1.5521 S   0  0  0  0  0  2  0  0  0  0  0  0
    0.1568    2.7696    1.3619 Si  0  0  0  0  0  4  0  0  0  0  0  0
   -1.2291    3.3110    1.2666 H   0  0  0  0  0  0  0  0  0  0  0  0
    0.9452    3.1074    0.1814 H   0  0  0  0  0  0  0  0  0  0  0  0
   -1.7804    0.0464    2.5424 Si  0  0  0  0  0  4  0  0  0  0  0  0
   -2.5115    1.2347    3.0085 H   0  0  0  0  0  0  0  0  0  0  0  0
   -2.6437   -0.6481    1.5728 H   0  0  0  0  0  0  0  0  0  0  0  0
   -1.3456   -1.2971    4.2845 Si  0  0  0  0  0  4  0  0  0  0  0  0
    0.8839   -1.3711    4.5147 Si  0  0  0  0  0  4  0  0  0  0  0  0
   -0.4317    3.4749    4.8482 Si  0  0  0  0  0  4  0  0  0  0  0  0
    1.0456    3.6928    3.2168 Si  0  0  0  0  0  4  0  0  0  0  0  0
    2.3203    3.0732    3.4998 H   0  0  0  0  0  0  0  0  0  0  0  0
    1.2753    5.1229    2.8889 H   0  0  0  0  0  0  0  0  0  0  0  0
    1.4916   -2.0166    6.5296 Si  0  0  0  0  0  4  0  0  0  0  0  0
    0.2844    4.1759    6.7976 Si  0  0  0  0  0  4  0  0  0  0  0  0
    3.1519   -0.6800    7.2639 Si  0  0  0  0  0  4  0  0  0  0  0  0
    2.4164    4.7274    6.8314 Si  0  0  0  0  0  4  0  0  0  0  0  0
    1.3738    0.0031    4.2339 H   0  0  0  0  0  0  0  0  0  0  0  0
    1.3997   -2.2213    3.4405 H   0  0  0  0  0  0  0  0  0  0  0  0
    0.3796   -1.9130    7.4528 H   0  0  0  0  0  0  0  0  0  0  0  0
    2.0042   -3.3995    6.4506 H   0  0  0  0  0  0  0  0  0  0  0  0
    2.8673    5.3937    5.6110 H   0  0  0  0  0  0  0  0  0  0  0  0
    2.6237    5.7030    7.9398 H   0  0  0  0  0  0  0  0  0  0  0  0
    3.1327    1.2061    6.0966 Si  0  0  0  0  0  4  0  0  0  0  0  0
    1.7479    1.4635    5.6095 H   0  0  0  0  0  0  0  0  0  0  0  0
    4.0057    1.1468    4.9247 H   0  0  0  0  0  0  0  0  0  0  0  0
    3.7275    2.9626    7.3264 Si  0  0  0  0  0  4  0  0  0  0  0  0
    3.6295    2.6443    8.7439 H   0  0  0  0  0  0  0  0  0  0  0  0
    5.1077    3.3493    7.0124 H   0  0  0  0  0  0  0  0  0  0  0  0
    4.4572   -1.3209    7.0886 H   0  0  0  0  0  0  0  0  0  0  0  0
    2.9252   -0.3773    8.6867 H   0  0  0  0  0  0  0  0  0  0  0  0
    0.0282    3.1334    7.8144 H   0  0  0  0  0  0  0  0  0  0  0  0
   -0.5126    5.3560    7.2269 H   0  0  0  0  0  0  0  0  0  0  0  0
   -1.6590    4.2101    4.4495 H   0  0  0  0  0  0  0  0  0  0  0  0
   -0.8274    2.0390    4.9086 H   0  0  0  0  0  0  0  0  0  0  0  0
   -1.8876   -2.6507    4.0073 H   0  0  0  0  0  0  0  0  0  0  0  0
   -1.9852   -0.7724    5.5158 H   0  0  0  0  0  0  0  0  0  0  0  0
  1  2  1  0
  1  5  1  0
  2  3  1  0
  2  4  1  0
  2 11  1  0
  5  6  1  0
  5  7  1  0
  5  8  1  0
  8  9  1  0
  8 36  1  0
  8 37  1  0
  9 14  1  0
  9 18  1  0
  9 19  1  0
 10 11  1  0
 10 15  1  0
 10 34  1  0
 10 35  1  0
 11 12  1  0
 11 13  1  0
 14 16  1  0
 14 20  1  0
 14 21  1  0
 15 17  1  0
 15 32  1  0
 15 33  1  0
 16 24  1  0
 16 30  1  0
 16 31  1  0
 17 22  1  0
 17 23  1  0
 17 27  1  0
 24 25  1  0
 24 26  1  0
 24 27  1  0
 27 28  1  0
 27 29  1  0
M  CHG  1   1   1
M  RAD  1   1   2
M  END
$$$$

     RDKit          3D

 37 37  0  0  0  0  0  0  0  0999 V2000
   -0.0004    0.6559    1.5521 S   0  0  0  0  0  2  0  0  0  0  0  0
   -0.0040    2.7752    1.3594 Si  0  0  0  0  0  4  0  0  0  0  0  0
   -1.4281    3.2139    1.3088 H   0  0  0  0  0  0  0  0  0  0  0  0
    0.7197    3.1683    0.1549 H   0  0  0  0  0  0  0  0  0  0  0  0
   -1.6988   -0.0808    2.5978 Si  0  0  0  0  0  4  0  0  0  0  0  0
   -2.4995    1.0515    3.0882 H   0  0  0  0  0  0  0  0  0  0  0  0
   -2.5394   -0.8376    1.6553 H   0  0  0  0  0  0  0  0  0  0  0  0
   -1.1120   -1.3869    4.3235 Si  0  0  0  0  0  4  0  0  0  0  0  0
    1.1232   -1.2977    4.4828 Si  0  0  0  0  0  4  0  0  0  0  0  0
   -0.5314    3.4397    4.8635 Si  0  0  0  0  0  4  0  0  0  0  0  0
    0.8735    3.7630    3.1863 Si  0  0  0  0  0  4  0  0  0  0  0  0
    2.1984    3.2384    3.4279 H   0  0  0  0  0  0  0  0  0  0  0  0
    0.9876    5.2057    2.8529 H   0  0  0  0  0  0  0  0  0  0  0  0
    1.8400   -1.8948    6.4766 Si  0  0  0  0  0  4  0  0  0  0  0  0
    0.1932    4.1934    6.7900 Si  0  0  0  0  0  4  0  0  0  0  0  0
    3.4209   -0.4397    7.1594 Si  0  0  0  0  0  4  0  0  0  0  0  0
    2.2793    4.8991    6.7567 Si  0  0  0  0  0  4  0  0  0  0  0  0
    1.5023    0.1082    4.1881 H   0  0  0  0  0  0  0  0  0  0  0  0
    1.6653   -2.1093    3.3917 H   0  0  0  0  0  0  0  0  0  0  0  0
    0.7534   -1.8716    7.4347 H   0  0  0  0  0  0  0  0  0  0  0  0
    2.4495   -3.2367    6.3798 H   0  0  0  0  0  0  0  0  0  0  0  0
    2.6414    5.5951    5.5234 H   0  0  0  0  0  0  0  0  0  0  0  0
    2.4499    5.8885    7.8591 H   0  0  0  0  0  0  0  0  0  0  0  0
    3.2270    1.4386    5.9954 Si  0  0  0  0  0  4  0  0  0  0  0  0
    1.8123    1.5937    5.5528 H   0  0  0  0  0  0  0  0  0  0  0  0
    4.0643    1.4418    4.7963 H   0  0  0  0  0  0  0  0  0  0  0  0
    3.7307    3.2353    7.2078 Si  0  0  0  0  0  4  0  0  0  0  0  0
    3.7013    2.9123    8.6273 H   0  0  0  0  0  0  0  0  0  0  0  0
    5.0683    3.7213    6.8505 H   0  0  0  0  0  0  0  0  0  0  0  0
    4.7632   -0.9839    6.9419 H   0  0  0  0  0  0  0  0  0  0  0  0
    3.2180   -0.1527    8.5890 H   0  0  0  0  0  0  0  0  0  0  0  0
    0.0462    3.1361    7.8132 H   0  0  0  0  0  0  0  0  0  0  0  0
   -0.6738    5.3127    7.2457 H   0  0  0  0  0  0  0  0  0  0  0  0
   -1.8211    4.0829    4.5049 H   0  0  0  0  0  0  0  0  0  0  0  0
   -0.8191    1.9788    4.9347 H   0  0  0  0  0  0  0  0  0  0  0  0
   -1.5622   -2.7768    4.0621 H   0  0  0  0  0  0  0  0  0  0  0  0
   -1.7488   -0.9089    5.5752 H   0  0  0  0  0  0  0  0  0  0  0  0
  1  2  1  0
  1  5  1  0
  2  3  1  0
  2  4  1  0
  2 11  1  0
  5  6  1  0
  5  7  1  0
  5  8  1  0
  8  9  1  0
  8 36  1  0
  8 37  1  0
  9 14  1  0
  9 18  1  0
  9 19  1  0
 10 11  1  0
 10 15  1  0
 10 34  1  0
 10 35  1  0
 11 12  1  0
 11 13  1  0
 14 16  1  0
 14 20  1  0
 14 21  1  0
 15 17  1  0
 15 32  1  0
 15 33  1  0
 16 24  1  0
 16 30  1  0
 16 31  1  0
 17 22  1  0
 17 23  1  0
 17 27  1  0
 24 25  1  0
 24 26  1  0
 24 27  1  0
 27 28  1  0
 27 29  1  0
M  CHG  1   1   1
M  RAD  1   1   2
M  END
$$$$

     RDKit          3D

 37 37  0  0  0  0  0  0  0  0999 V2000
   -0.0004    0.6559    1.5521 S   0  0  0  0  0  2  0  0  0  0  0  0
   -0.3639    0.3763    3.6226 Si  0  0  0  0  0  4  0  0  0  0  0  0
   -0.0636    1.5665    4.4096 H   0  0  0  0  0  0  0  0  0  0  0  0
    0.5599   -0.6909    4.1041 H   0  0  0  0  0  0  0  0  0  0  0  0
   -0.3415    2.6455    0.8988 Si  0  0  0  0  0  4  0  0  0  0  0  0
   -1.7210    3.0860    1.1672 H   0  0  0  0  0  0  0  0  0  0  0  0
   -0.1297    2.7118   -0.5447 H   0  0  0  0  0  0  0  0  0  0  0  0
    1.1086    4.0865    1.8503 Si  0  0  0  0  0  4  0  0  0  0  0  0
    0.2387    4.7703    3.7501 Si  0  0  0  0  0  4  0  0  0  0  0  0
   -3.3804    0.9043    5.6791 Si  0  0  0  0  0  4  0  0  0  0  0  0
   -2.4313   -0.2986    4.0556 Si  0  0  0  0  0  4  0  0  0  0  0  0
   -2.4604   -1.7222    4.4986 H   0  0  0  0  0  0  0  0  0  0  0  0
   -3.2110   -0.2510    2.8104 H   0  0  0  0  0  0  0  0  0  0  0  0
    0.8792    6.7872    4.3642 Si  0  0  0  0  0  4  0  0  0  0  0  0
   -2.0790    2.5077    6.4236 Si  0  0  0  0  0  4  0  0  0  0  0  0
    0.8124    6.8829    6.6191 Si  0  0  0  0  0  4  0  0  0  0  0  0
   -2.4405    3.0535    8.5322 Si  0  0  0  0  0  4  0  0  0  0  0  0
   -1.2403    4.7351    3.6362 H   0  0  0  0  0  0  0  0  0  0  0  0
    0.6446    3.8217    4.8250 H   0  0  0  0  0  0  0  0  0  0  0  0
   -0.1487    7.7592    3.8964 H   0  0  0  0  0  0  0  0  0  0  0  0
    2.1988    7.1337    3.8668 H   0  0  0  0  0  0  0  0  0  0  0  0
   -1.9140    1.9734    9.4098 H   0  0  0  0  0  0  0  0  0  0  0  0
   -3.8366    3.2803    8.8533 H   0  0  0  0  0  0  0  0  0  0  0  0
   -1.2350    6.3132    7.2957 Si  0  0  0  0  0  4  0  0  0  0  0  0
   -1.9054    7.5599    7.7409 H   0  0  0  0  0  0  0  0  0  0  0  0
   -2.0416    5.7538    6.2036 H   0  0  0  0  0  0  0  0  0  0  0  0
   -1.1832    4.8727    8.9821 Si  0  0  0  0  0  4  0  0  0  0  0  0
    0.1948    4.4591    9.3030 H   0  0  0  0  0  0  0  0  0  0  0  0
   -1.7217    5.4992   10.2106 H   0  0  0  0  0  0  0  0  0  0  0  0
    1.2254    8.1846    7.1027 H   0  0  0  0  0  0  0  0  0  0  0  0
    1.7556    5.8650    7.1624 H   0  0  0  0  0  0  0  0  0  0  0  0
   -2.2887    3.7157    5.5922 H   0  0  0  0  0  0  0  0  0  0  0  0
   -0.6690    2.1035    6.2823 H   0  0  0  0  0  0  0  0  0  0  0  0
   -4.6068    1.5237    5.1002 H   0  0  0  0  0  0  0  0  0  0  0  0
   -3.8380    0.0639    6.7906 H   0  0  0  0  0  0  0  0  0  0  0  0
    1.2921    5.1979    0.9178 H   0  0  0  0  0  0  0  0  0  0  0  0
    2.3912    3.3954    2.1302 H   0  0  0  0  0  0  0  0  0  0  0  0
  1  2  1  0
  1  5  1  0
  2  3  1  0
  2  4  1  0
  2 11  1  0
  5  6  1  0
  5  7  1  0
  5  8  1  0
  8  9  1  0
  8 36  1  0
  8 37  1  0
  9 14  1  0
  9 18  1  0
  9 19  1  0
 10 11  1  0
 10 15  1  0
 10 34  1  0
 10 35  1  0
 11 12  1  0
 11 13  1  0
 14 16  1  0
 14 20  1  0
 14 21  1  0
 15 17  1  0
 15 32  1  0
 15 33  1  0
 16 24  1  0
 16 30  1  0
 16 31  1  0
 17 22  1  0
 17 23  1  0
 17 27  1  0
 24 25  1  0
 24 26  1  0
 24 27  1  0
 27 28  1  0
 27 29  1  0
M  CHG  1   1   1
M  RAD  1   1   2
M  END
$$$$

     RDKit          3D

 37 37  0  0  0  0  0  0  0  0999 V2000
   -0.0004    0.6559    1.5521 S   0  0  0  0  0  2  0  0  0  0  0  0
   -1.1540   -0.9118    2.4390 Si  0  0  0  0  0  4  0  0  0  0  0  0
   -2.4808   -0.8822    1.7543 H   0  0  0  0  0  0  0  0  0  0  0  0
   -1.4030   -0.6087    3.8328 H   0  0  0  0  0  0  0  0  0  0  0  0
    1.4297    1.4665    2.9294 Si  0  0  0  0  0  4  0  0  0  0  0  0
    1.2252    2.9257    3.0467 H   0  0  0  0  0  0  0  0  0  0  0  0
    2.7647    1.3003    2.2846 H   0  0  0  0  0  0  0  0  0  0  0  0
    1.4100    0.4399    4.8763 Si  0  0  0  0  0  4  0  0  0  0  0  0
    1.6959    1.8139    6.5952 Si  0  0  0  0  0  4  0  0  0  0  0  0
    0.7220   -3.7847    3.8354 Si  0  0  0  0  0  4  0  0  0  0  0  0
   -0.2733   -2.9062    2.0908 Si  0  0  0  0  0  4  0  0  0  0  0  0
    0.7213   -2.7842    0.9869 H   0  0  0  0  0  0  0  0  0  0  0  0
   -1.2908   -3.8657    1.5886 H   0  0  0  0  0  0  0  0  0  0  0  0
   -0.1651    2.1501    7.7246 Si  0  0  0  0  0  4  0  0  0  0  0  0
   -0.6945   -4.8611    5.1894 Si  0  0  0  0  0  4  0  0  0  0  0  0
   -1.5158    0.3846    7.7195 Si  0  0  0  0  0  4  0  0  0  0  0  0
   -2.2139   -3.5100    6.0497 Si  0  0  0  0  0  4  0  0  0  0  0  0
    2.2405    3.1213    6.1449 H   0  0  0  0  0  0  0  0  0  0  0  0
    2.7105    1.2473    7.5155 H   0  0  0  0  0  0  0  0  0  0  0  0
   -0.8986    3.2701    7.1061 H   0  0  0  0  0  0  0  0  0  0  0  0
    0.1449    2.5196    9.1085 H   0  0  0  0  0  0  0  0  0  0  0  0
   -2.2703   -2.2087    5.3984 H   0  0  0  0  0  0  0  0  0  0  0  0
   -3.5492   -4.1418    5.8519 H   0  0  0  0  0  0  0  0  0  0  0  0
   -0.5682   -1.4128    8.5902 Si  0  0  0  0  0  4  0  0  0  0  0  0
   -0.4969   -1.2262   10.0590 H   0  0  0  0  0  0  0  0  0  0  0  0
    0.7738   -1.6658    8.0893 H   0  0  0  0  0  0  0  0  0  0  0  0
   -1.9087   -3.1715    8.2349 Si  0  0  0  0  0  4  0  0  0  0  0  0
   -1.4386   -4.3669    8.9121 H   0  0  0  0  0  0  0  0  0  0  0  0
   -3.2428   -2.8295    8.8047 H   0  0  0  0  0  0  0  0  0  0  0  0
   -2.6839    0.7382    8.5717 H   0  0  0  0  0  0  0  0  0  0  0  0
   -2.0318    0.0815    6.3984 H   0  0  0  0  0  0  0  0  0  0  0  0
   -1.2695   -6.0121    4.4936 H   0  0  0  0  0  0  0  0  0  0  0  0
    0.1234   -5.4037    6.3112 H   0  0  0  0  0  0  0  0  0  0  0  0
    1.4881   -2.8504    4.6332 H   0  0  0  0  0  0  0  0  0  0  0  0
    1.6860   -4.8147    3.3452 H   0  0  0  0  0  0  0  0  0  0  0  0
    2.4930   -0.5820    4.8795 H   0  0  0  0  0  0  0  0  0  0  0  0
    0.1540   -0.3155    5.1179 H   0  0  0  0  0  0  0  0  0  0  0  0
  1  2  1  0
  1  5  1  0
  2  3  1  0
  2  4  1  0
  2 11  1  0
  5  6  1  0
  5  7  1  0
  5  8  1  0
  8  9  1  0
  8 36  1  0
  8 37  1  0
  9 14  1  0
  9 18  1  0
  9 19  1  0
 10 11  1  0
 10 15  1  0
 10 34  1  0
 10 35  1  0
 11 12  1  0
 11 13  1  0
 14 16  1  0
 14 20  1  0
 14 21  1  0
 15 17  1  0
 15 32  1  0
 15 33  1  0
 16 24  1  0
 16 30  1  0
 16 31  1  0
 17 22  1  0
 17 23  1  0
 17 27  1  0
 24 25  1  0
 24 26  1  0
 24 27  1  0
 27 28  1  0
 27 29  1  0
M  CHG  1   1   1
M  RAD  1   1   2
M  END
$$$$
