
     RDKit          3D

 37 37  0  0  0  0  0  0  0  0999 V2000
    0.0729    0.1447    2.2401 S   0  0  0  0  0  2  0  0  0  0  0  0
   -0.5927    1.6772    3.5358 Si  0  0  0  0  0  4  0  0  0  0  0  0
   -1.1542    1.1179    4.7880 H   0  0  0  0  0  0  0  0  0  0  0  0
   -1.6863    2.4096    2.8791 H   0  0  0  0  0  0  0  0  0  0  0  0
    1.8262   -0.8389    2.9140 Si  0  0  0  0  0  4  0  0  0  0  0  0
    2.9811    0.0906    2.8777 H   0  0  0  0  0  0  0  0  0  0  0  0
    2.1360   -1.9297    1.9775 H   0  0  0  0  0  0  0  0  0  0  0  0
    1.6565   -1.6635    4.9484 Si  0  0  0  0  0  4  0  0  0  0  0  0
   -0.4078   -2.2187    5.5049 Si  0  0  0  0  0  4  0  0  0  0  0  0
    0.5221    4.1011    5.9808 Si  0  0  0  0  0  4  0  0  0  0  0  0
    1.0095    3.1597    4.0073 Si  0  0  0  0  0  4  0  0  0  0  0  0
    2.3259    2.5175    4.1351 H   0  0  0  0  0  0  0  0  0  0  0  0
    1.0334    4.2390    3.0039 H   0  0  0  0  0  0  0  0  0  0  0  0
   -0.9267   -1.6195    7.5759 Si  0  0  0  0  0  4  0  0  0  0  0  0
    2.3838    4.7898    6.9723 Si  0  0  0  0  0  4  0  0  0  0  0  0
    0.8958   -0.9910    8.7291 Si  0  0  0  0  0  4  0  0  0  0  0  0
    3.9928    3.2530    6.8977 Si  0  0  0  0  0  4  0  0  0  0  0  0
   -0.6250   -3.6898    5.4001 H   0  0  0  0  0  0  0  0  0  0  0  0
   -1.3334   -1.6064    4.5149 H   0  0  0  0  0  0  0  0  0  0  0  0
   -1.7954   -0.4146    7.4857 H   0  0  0  0  0  0  0  0  0  0  0  0
   -1.6644   -2.6412    8.2981 H   0  0  0  0  0  0  0  0  0  0  0  0
    4.1501    2.7118    5.5589 H   0  0  0  0  0  0  0  0  0  0  0  0
    5.2444    3.9013    7.3397 H   0  0  0  0  0  0  0  0  0  0  0  0
    1.3692    1.1027    8.1013 Si  0  0  0  0  0  4  0  0  0  0  0  0
    1.0235    1.1940    6.6575 H   0  0  0  0  0  0  0  0  0  0  0  0
    0.5893    2.0722    8.8762 H   0  0  0  0  0  0  0  0  0  0  0  0
    3.5290    1.5562    8.3007 Si  0  0  0  0  0  4  0  0  0  0  0  0
    4.3659    0.4183    7.8621 H   0  0  0  0  0  0  0  0  0  0  0  0
    3.8682    1.9488    9.6760 H   0  0  0  0  0  0  0  0  0  0  0  0
    0.5047   -0.9402   10.1463 H   0  0  0  0  0  0  0  0  0  0  0  0
    2.0119   -1.8944    8.5127 H   0  0  0  0  0  0  0  0  0  0  0  0
    2.1435    5.1853    8.3493 H   0  0  0  0  0  0  0  0  0  0  0  0
    2.8721    5.9817    6.2457 H   0  0  0  0  0  0  0  0  0  0  0  0
   -0.2715    3.2080    6.8267 H   0  0  0  0  0  0  0  0  0  0  0  0
   -0.3218    5.2977    5.7221 H   0  0  0  0  0  0  0  0  0  0  0  0
    2.2660   -0.7250    5.9269 H   0  0  0  0  0  0  0  0  0  0  0  0
    2.4913   -2.8971    5.0268 H   0  0  0  0  0  0  0  0  0  0  0  0
  1  2  1  0
  1  5  1  0
  2  3  1  0
  2  4  1  0
  2 11  1  0
  5  6  1  0
  5  7  1  0
  5  8  1  0
  8  9  1  0
  8 36  1  0
  8 37  1  0
  9 14  1  0
  9 18  1  0
  9 19  1  0
 10 11  1  0
 10 15  1  0
 10 34  1  0
 10 35  1  0
 11 12  1  0
 11 13  1  0
 14 16  1  0
 14 20  1  0
 14 21  1  0
 15 17  1  0
 15 32  1  0
 15 33  1  0
 16 24  1  0
 16 30  1  0
 16 31  1  0
 17 22  1  0
 17 23  1  0
 17 27  1  0
 24 25  1  0
 24 26  1  0
 24 27  1  0
 27 28  1  0
 27 29  1  0
M  CHG  1   1   1
M  RAD  1   1   2
M  END
$$$$

     RDKit          3D

 37 37  0  0  0  0  0  0  0  0999 V2000
    0.0729    0.1447    2.2401 S   0  0  0  0  0  2  0  0  0  0  0  0
    1.7289    0.1100    3.5542 Si  0  0  0  0  0  4  0  0  0  0  0  0
    1.4911    0.9618    4.7432 H   0  0  0  0  0  0  0  0  0  0  0  0
    2.8948    0.6782    2.8605 H   0  0  0  0  0  0  0  0  0  0  0  0
   -1.6254   -0.8849    2.9825 Si  0  0  0  0  0  4  0  0  0  0  0  0
   -1.3494   -2.3399    3.0593 H   0  0  0  0  0  0  0  0  0  0  0  0
   -2.7269   -0.7171    2.0225 H   0  0  0  0  0  0  0  0  0  0  0  0
   -2.2874   -0.1936    4.9653 Si  0  0  0  0  0  4  0  0  0  0  0  0
   -1.8088    1.9255    5.3648 Si  0  0  0  0  0  4  0  0  0  0  0  0
    3.3243   -1.8218    6.1656 Si  0  0  0  0  0  4  0  0  0  0  0  0
    2.2784   -1.9593    4.1892 Si  0  0  0  0  0  4  0  0  0  0  0  0
    1.0909   -2.8063    4.3736 H   0  0  0  0  0  0  0  0  0  0  0  0
    3.2263   -2.5634    3.2359 H   0  0  0  0  0  0  0  0  0  0  0  0
   -1.0507    2.2588    7.4219 Si  0  0  0  0  0  4  0  0  0  0  0  0
    3.0475   -3.7073    7.3021 Si  0  0  0  0  0  4  0  0  0  0  0  0
   -1.3631    0.4484    8.7147 Si  0  0  0  0  0  4  0  0  0  0  0  0
    0.9346   -4.4074    7.2657 Si  0  0  0  0  0  4  0  0  0  0  0  0
   -3.0033    2.7989    5.1843 H   0  0  0  0  0  0  0  0  0  0  0  0
   -0.8256    2.3770    4.3444 H   0  0  0  0  0  0  0  0  0  0  0  0
    0.4221    2.4507    7.3274 H   0  0  0  0  0  0  0  0  0  0  0  0
   -1.6095    3.4422    8.0516 H   0  0  0  0  0  0  0  0  0  0  0  0
    0.3927   -4.3940    5.9181 H   0  0  0  0  0  0  0  0  0  0  0  0
    0.9137   -5.7790    7.8137 H   0  0  0  0  0  0  0  0  0  0  0  0
    0.2651   -0.9985    8.2074 Si  0  0  0  0  0  4  0  0  0  0  0  0
    0.5189   -0.8472    6.7496 H   0  0  0  0  0  0  0  0  0  0  0  0
    1.4822   -0.7082    8.9711 H   0  0  0  0  0  0  0  0  0  0  0  0
   -0.3536   -3.0962    8.5633 Si  0  0  0  0  0  4  0  0  0  0  0  0
   -1.7485   -3.3320    8.1314 H   0  0  0  0  0  0  0  0  0  0  0  0
   -0.1769   -3.4739    9.9728 H   0  0  0  0  0  0  0  0  0  0  0  0
   -1.1442    0.8766   10.1048 H   0  0  0  0  0  0  0  0  0  0  0  0
   -2.6842   -0.1261    8.5320 H   0  0  0  0  0  0  0  0  0  0  0  0
    3.4998   -3.5764    8.6764 H   0  0  0  0  0  0  0  0  0  0  0  0
    3.8741   -4.7515    6.6592 H   0  0  0  0  0  0  0  0  0  0  0  0
    2.9042   -0.6401    6.9206 H   0  0  0  0  0  0  0  0  0  0  0  0
    4.7791   -1.6606    5.9043 H   0  0  0  0  0  0  0  0  0  0  0  0
   -1.7538   -1.0956    6.0194 H   0  0  0  0  0  0  0  0  0  0  0  0
   -3.7694   -0.3433    5.0446 H   0  0  0  0  0  0  0  0  0  0  0  0
  1  2  1  0
  1  5  1  0
  2  3  1  0
  2  4  1  0
  2 11  1  0
  5  6  1  0
  5  7  1  0
  5  8  1  0
  8  9  1  0
  8 36  1  0
  8 37  1  0
  9 14  1  0
  9 18  1  0
  9 19  1  0
 10 11  1  0
 10 15  1  0
 10 34  1  0
 10 35  1  0
 11 12  1  0
 11 13  1  0
 14 16  1  0
 14 20  1  0
 14 21  1  0
 15 17  1  0
 15 32  1  0
 15 33  1  0
 16 24  1  0
 16 30  1  0
 16 31  1  0
 17 22  1  0
 17 23  1  0
 17 27  1  0
 24 25  1  0
 24 26  1  0
 24 27  1  0
 27 28  1  0
 27 29  1  0
M  CHG  1   1   1
M  RAD  1   1   2
M  END
$$$$

     RDKit          3D

 37 37  0  0  0  0  0  0  0  0999 V2000
    0.0729    0.1447    2.2401 S   0  0  0  0  0  2  0  0  0  0  0  0
    0.9498   -0.9441    3.8839 Si  0  0  0  0  0  4  0  0  0  0  0  0
   -0.1717   -1.5936    4.5979 H   0  0  0  0  0  0  0  0  0  0  0  0
    1.8967   -1.9473    3.4295 H   0  0  0  0  0  0  0  0  0  0  0  0
   -0.7733    1.9661    3.0044 Si  0  0  0  0  0  4  0  0  0  0  0  0
    0.2693    2.8899    3.4662 H   0  0  0  0  0  0  0  0  0  0  0  0
   -1.5619    2.6461    1.9666 H   0  0  0  0  0  0  0  0  0  0  0  0
   -2.1697    1.4512    4.6715 Si  0  0  0  0  0  4  0  0  0  0  0  0
   -3.0401    3.2814    5.5835 Si  0  0  0  0  0  4  0  0  0  0  0  0
    3.5473    1.6250    4.3720 Si  0  0  0  0  0  4  0  0  0  0  0  0
    1.8617    0.5307    5.2727 Si  0  0  0  0  0  4  0  0  0  0  0  0
    0.7941    1.5008    5.6468 H   0  0  0  0  0  0  0  0  0  0  0  0
    2.3047   -0.0847    6.5323 H   0  0  0  0  0  0  0  0  0  0  0  0
   -1.4606    4.5993    6.4316 Si  0  0  0  0  0  4  0  0  0  0  0  0
    3.4813    3.7519    5.1197 Si  0  0  0  0  0  4  0  0  0  0  0  0
   -1.1711    4.2238    8.6184 Si  0  0  0  0  0  4  0  0  0  0  0  0
    4.0806    3.8807    7.2415 Si  0  0  0  0  0  4  0  0  0  0  0  0
   -3.8428    3.9821    4.5632 H   0  0  0  0  0  0  0  0  0  0  0  0
   -3.9703    2.8635    6.6394 H   0  0  0  0  0  0  0  0  0  0  0  0
   -1.8491    6.0006    6.2611 H   0  0  0  0  0  0  0  0  0  0  0  0
   -0.2088    4.3883    5.7073 H   0  0  0  0  0  0  0  0  0  0  0  0
    5.2425    4.8098    7.3307 H   0  0  0  0  0  0  0  0  0  0  0  0
    4.5185    2.6009    7.7932 H   0  0  0  0  0  0  0  0  0  0  0  0
    0.8444    3.2523    8.8965 Si  0  0  0  0  0  4  0  0  0  0  0  0
    0.8934    2.1110    8.0031 H   0  0  0  0  0  0  0  0  0  0  0  0
    0.8762    2.7160   10.2860 H   0  0  0  0  0  0  0  0  0  0  0  0
    2.4783    4.7086    8.5381 Si  0  0  0  0  0  4  0  0  0  0  0  0
    1.9022    5.9383    7.9970 H   0  0  0  0  0  0  0  0  0  0  0  0
    3.0780    5.0584    9.8494 H   0  0  0  0  0  0  0  0  0  0  0  0
   -1.2673    5.4369    9.4072 H   0  0  0  0  0  0  0  0  0  0  0  0
   -2.1818    3.2278    9.0359 H   0  0  0  0  0  0  0  0  0  0  0  0
    2.0930    4.2162    4.8996 H   0  0  0  0  0  0  0  0  0  0  0  0
    4.3566    4.5284    4.2303 H   0  0  0  0  0  0  0  0  0  0  0  0
    4.8422    1.0342    4.7973 H   0  0  0  0  0  0  0  0  0  0  0  0
    3.5452    1.6216    2.9130 H   0  0  0  0  0  0  0  0  0  0  0  0
   -3.2733    0.6660    4.0909 H   0  0  0  0  0  0  0  0  0  0  0  0
   -1.4935    0.6947    5.7260 H   0  0  0  0  0  0  0  0  0  0  0  0
  1  2  1  0
  1  5  1  0
  2  3  1  0
  2  4  1  0
  2 11  1  0
  5  6  1  0
  5  7  1  0
  5  8  1  0
  8  9  1  0
  8 36  1  0
  8 37  1  0
  9 14  1  0
  9 18  1  0
  9 19  1  0
 10 11  1  0
 10 15  1  0
 10 34  1  0
 10 35  1  0
 11 12  1  0
 11 13  1  0
 14 16  1  0
 14 20  1  0
 14 21  1  0
 15 17  1  0
 15 32  1  0
 15 33  1  0
 16 24  1  0
 16 30  1  0
 16 31  1  0
 17 22  1  0
 17 23  1  0
 17 27  1  0
 24 25  1  0
 24 26  1  0
 24 27  1  0
 27 28  1  0
 27 29  1  0
M  CHG  1   1   1
M  RAD  1   1   2
M  END
$$$$

     RDKit          3D

 37 37  0  0  0  0  0  0  0  0999 V2000
    0.0729    0.1447    2.2401 S   0  0  0  0  0  2  0  0  0  0  0  0
    1.6001   -0.3890    3.6840 Si  0  0  0  0  0  4  0  0  0  0  0  0
    1.5689   -1.8414    3.9516 H   0  0  0  0  0  0  0  0  0  0  0  0
    2.9312    0.0070    3.2031 H   0  0  0  0  0  0  0  0  0  0  0  0
   -0.4439    2.2341    2.4996 Si  0  0  0  0  0  4  0  0  0  0  0  0
    0.7669    2.9214    2.9099 H   0  0  0  0  0  0  0  0  0  0  0  0
   -0.9274    2.6921    1.1675 H   0  0  0  0  0  0  0  0  0  0  0  0
   -2.0886    2.4915    3.9455 Si  0  0  0  0  0  4  0  0  0  0  0  0
   -1.8557    4.3003    5.2100 Si  0  0  0  0  0  4  0  0  0  0  0  0
    3.0448    1.3196    6.6165 Si  0  0  0  0  0  4  0  0  0  0  0  0
    1.1801    0.7226    5.5539 Si  0  0  0  0  0  4  0  0  0  0  0  0
    0.3648   -0.0851    6.4724 H   0  0  0  0  0  0  0  0  0  0  0  0
    0.4544    1.9439    5.2178 H   0  0  0  0  0  0  0  0  0  0  0  0
   -1.6075    6.1471    4.0328 Si  0  0  0  0  0  4  0  0  0  0  0  0
    4.4958    2.3019    5.2628 Si  0  0  0  0  0  4  0  0  0  0  0  0
    0.5128    6.5014    3.4350 Si  0  0  0  0  0  4  0  0  0  0  0  0
    3.8222    4.2830    4.5624 Si  0  0  0  0  0  4  0  0  0  0  0  0
   -2.9807    4.3500    6.1488 H   0  0  0  0  0  0  0  0  0  0  0  0
   -0.6319    4.1259    6.0431 H   0  0  0  0  0  0  0  0  0  0  0  0
   -2.4758    6.1294    2.8685 H   0  0  0  0  0  0  0  0  0  0  0  0
   -2.0114    7.2958    4.8847 H   0  0  0  0  0  0  0  0  0  0  0  0
    5.0033    5.0914    4.1526 H   0  0  0  0  0  0  0  0  0  0  0  0
    2.9531    4.2123    3.3762 H   0  0  0  0  0  0  0  0  0  0  0  0
    1.7508    7.1864    5.1482 Si  0  0  0  0  0  4  0  0  0  0  0  0
    2.8524    8.0211    4.5967 H   0  0  0  0  0  0  0  0  0  0  0  0
    1.0122    7.9904    6.1043 H   0  0  0  0  0  0  0  0  0  0  0  0
    2.7556    5.4309    6.1404 Si  0  0  0  0  0  4  0  0  0  0  0  0
    1.7113    4.6391    6.7751 H   0  0  0  0  0  0  0  0  0  0  0  0
    3.7063    6.0027    7.1247 H   0  0  0  0  0  0  0  0  0  0  0  0
    0.5391    7.5357    2.3910 H   0  0  0  0  0  0  0  0  0  0  0  0
    1.1325    5.2932    2.8840 H   0  0  0  0  0  0  0  0  0  0  0  0
    4.6928    1.4280    4.0865 H   0  0  0  0  0  0  0  0  0  0  0  0
    5.7728    2.4434    5.9850 H   0  0  0  0  0  0  0  0  0  0  0  0
    3.6601    0.1169    7.1751 H   0  0  0  0  0  0  0  0  0  0  0  0
    2.6592    2.2163    7.7187 H   0  0  0  0  0  0  0  0  0  0  0  0
   -3.3889    2.5352    3.2759 H   0  0  0  0  0  0  0  0  0  0  0  0
   -2.1083    1.3164    4.8428 H   0  0  0  0  0  0  0  0  0  0  0  0
  1  2  1  0
  1  5  1  0
  2  3  1  0
  2  4  1  0
  2 11  1  0
  5  6  1  0
  5  7  1  0
  5  8  1  0
  8  9  1  0
  8 36  1  0
  8 37  1  0
  9 14  1  0
  9 18  1  0
  9 19  1  0
 10 11  1  0
 10 15  1  0
 10 34  1  0
 10 35  1  0
 11 12  1  0
 11 13  1  0
 14 16  1  0
 14 20  1  0
 14 21  1  0
 15 17  1  0
 15 32  1  0
 15 33  1  0
 16 24  1  0
 16 30  1  0
 16 31  1  0
 17 22  1  0
 17 23  1  0
 17 27  1  0
 24 25  1  0
 24 26  1  0
 24 27  1  0
 27 28  1  0
 27 29  1  0
M  CHG  1   1   1
M  RAD  1   1   2
M  END
$$$$

     RDKit          3D

 37 37  0  0  0  0  0  0  0  0999 V2000
    0.0729    0.1447    2.2401 S   0  0  0  0  0  2  0  0  0  0  0  0
    0.6831   -1.8867    2.6170 Si  0  0  0  0  0  4  0  0  0  0  0  0
    1.1821   -2.4788    1.3496 H   0  0  0  0  0  0  0  0  0  0  0  0
   -0.4230   -2.7149    3.0661 H   0  0  0  0  0  0  0  0  0  0  0  0
   -1.3627    0.7850    3.7231 Si  0  0  0  0  0  4  0  0  0  0  0  0
   -2.6726    0.2234    3.2878 H   0  0  0  0  0  0  0  0  0  0  0  0
   -1.0785    0.2158    5.0306 H   0  0  0  0  0  0  0  0  0  0  0  0
   -1.5355    2.9846    3.7199 Si  0  0  0  0  0  4  0  0  0  0  0  0
   -0.1573    3.9487    5.1870 Si  0  0  0  0  0  4  0  0  0  0  0  0
    1.9096   -0.8334    5.9326 Si  0  0  0  0  0  4  0  0  0  0  0  0
    2.3860   -1.8677    4.0478 Si  0  0  0  0  0  4  0  0  0  0  0  0
    3.5008   -1.1306    3.3867 H   0  0  0  0  0  0  0  0  0  0  0  0
    2.8035   -3.2358    4.3189 H   0  0  0  0  0  0  0  0  0  0  0  0
    1.9661    3.4893    4.7647 Si  0  0  0  0  0  4  0  0  0  0  0  0
    0.7124   -2.0883    7.3276 Si  0  0  0  0  0  4  0  0  0  0  0  0
    3.0317    3.0088    6.6933 Si  0  0  0  0  0  4  0  0  0  0  0  0
    0.6673   -1.0181    9.3093 Si  0  0  0  0  0  4  0  0  0  0  0  0
   -0.5575    3.6105    6.5542 H   0  0  0  0  0  0  0  0  0  0  0  0
   -0.3389    5.4155    5.0469 H   0  0  0  0  0  0  0  0  0  0  0  0
    2.6564    4.5897    4.0775 H   0  0  0  0  0  0  0  0  0  0  0  0
    2.0338    2.3199    3.8816 H   0  0  0  0  0  0  0  0  0  0  0  0
    0.9517   -1.9330   10.4115 H   0  0  0  0  0  0  0  0  0  0  0  0
   -0.6501   -0.3919    9.5204 H   0  0  0  0  0  0  0  0  0  0  0  0
    1.5579    2.3940    8.2305 Si  0  0  0  0  0  4  0  0  0  0  0  0
    0.2967    2.0478    7.5492 H   0  0  0  0  0  0  0  0  0  0  0  0
    1.3702    3.5120    9.1771 H   0  0  0  0  0  0  0  0  0  0  0  0
    2.2294    0.5901    9.3603 Si  0  0  0  0  0  4  0  0  0  0  0  0
    2.4654    0.9247   10.7754 H   0  0  0  0  0  0  0  0  0  0  0  0
    3.4522    0.0413    8.7248 H   0  0  0  0  0  0  0  0  0  0  0  0
    3.7686    4.2241    7.0824 H   0  0  0  0  0  0  0  0  0  0  0  0
    3.9511    1.8961    6.4282 H   0  0  0  0  0  0  0  0  0  0  0  0
   -0.6485   -2.2384    6.7973 H   0  0  0  0  0  0  0  0  0  0  0  0
    1.3275   -3.4093    7.4832 H   0  0  0  0  0  0  0  0  0  0  0  0
    1.2039    0.4307    5.7414 H   0  0  0  0  0  0  0  0  0  0  0  0
    3.1928   -0.5206    6.6248 H   0  0  0  0  0  0  0  0  0  0  0  0
   -2.9075    3.3973    4.0738 H   0  0  0  0  0  0  0  0  0  0  0  0
   -1.2212    3.4865    2.3857 H   0  0  0  0  0  0  0  0  0  0  0  0
  1  2  1  0
  1  5  1  0
  2  3  1  0
  2  4  1  0
  2 11  1  0
  5  6  1  0
  5  7  1  0
  5  8  1  0
  8  9  1  0
  8 36  1  0
  8 37  1  0
  9 14  1  0
  9 18  1  0
  9 19  1  0
 10 11  1  0
 10 15  1  0
 10 34  1  0
 10 35  1  0
 11 12  1  0
 11 13  1  0
 14 16  1  0
 14 20  1  0
 14 21  1  0
 15 17  1  0
 15 32  1  0
 15 33  1  0
 16 24  1  0
 16 30  1  0
 16 31  1  0
 17 22  1  0
 17 23  1  0
 17 27  1  0
 24 25  1  0
 24 26  1  0
 24 27  1  0
 27 28  1  0
 27 29  1  0
M  CHG  1   1   1
M  RAD  1   1   2
M  END
$$$$

     RDKit          3D

 37 37  0  0  0  0  0  0  0  0999 V2000
    0.0729    0.1447    2.2401 S   0  0  0  0  0  2  0  0  0  0  0  0
   -0.8499    1.2760    3.8291 Si  0  0  0  0  0  4  0  0  0  0  0  0
    0.2260    2.0862    4.4418 H   0  0  0  0  0  0  0  0  0  0  0  0
   -1.9064    2.1433    3.3379 H   0  0  0  0  0  0  0  0  0  0  0  0
    1.1206   -1.5184    3.1083 Si  0  0  0  0  0  4  0  0  0  0  0  0
    0.1909   -2.4967    3.6850 H   0  0  0  0  0  0  0  0  0  0  0  0
    1.9362   -2.2030    2.0946 H   0  0  0  0  0  0  0  0  0  0  0  0
    2.5161   -0.7371    4.6692 Si  0  0  0  0  0  4  0  0  0  0  0  0
    3.5939   -2.3945    5.6844 Si  0  0  0  0  0  4  0  0  0  0  0  0
   -3.1627   -1.4809    4.6268 Si  0  0  0  0  0  4  0  0  0  0  0  0
   -1.5633   -0.1600    5.3667 Si  0  0  0  0  0  4  0  0  0  0  0  0
   -0.3928   -0.9896    5.7702 H   0  0  0  0  0  0  0  0  0  0  0  0
   -2.0212    0.5116    6.5918 H   0  0  0  0  0  0  0  0  0  0  0  0
    2.1825   -3.7832    6.6994 Si  0  0  0  0  0  4  0  0  0  0  0  0
   -2.8613   -3.5230    5.5356 Si  0  0  0  0  0  4  0  0  0  0  0  0
    1.9330   -3.2587    8.8603 Si  0  0  0  0  0  4  0  0  0  0  0  0
   -3.3714   -3.5337    7.6844 Si  0  0  0  0  0  4  0  0  0  0  0  0
    4.4262   -3.0968    4.6891 H   0  0  0  0  0  0  0  0  0  0  0  0
    4.5142   -1.8042    6.6639 H   0  0  0  0  0  0  0  0  0  0  0  0
    2.7013   -5.1502    6.6230 H   0  0  0  0  0  0  0  0  0  0  0  0
    0.8917   -3.7531    6.0145 H   0  0  0  0  0  0  0  0  0  0  0  0
   -4.4321   -4.5592    7.8954 H   0  0  0  0  0  0  0  0  0  0  0  0
   -3.9141   -2.2606    8.1521 H   0  0  0  0  0  0  0  0  0  0  0  0
   -0.1578   -2.4649    9.1465 Si  0  0  0  0  0  4  0  0  0  0  0  0
   -0.3500   -1.4107    8.1691 H   0  0  0  0  0  0  0  0  0  0  0  0
   -0.1944   -1.8217   10.4896 H   0  0  0  0  0  0  0  0  0  0  0  0
   -1.6513   -4.0952    8.9729 Si  0  0  0  0  0  4  0  0  0  0  0  0
   -0.9757   -5.3045    8.5060 H   0  0  0  0  0  0  0  0  0  0  0  0
   -2.1679   -4.3918   10.3318 H   0  0  0  0  0  0  0  0  0  0  0  0
    2.1757   -4.3881    9.7369 H   0  0  0  0  0  0  0  0  0  0  0  0
    2.8542   -2.1397    9.1552 H   0  0  0  0  0  0  0  0  0  0  0  0
   -1.4424   -3.8689    5.2940 H   0  0  0  0  0  0  0  0  0  0  0  0
   -3.6859   -4.4501    4.7477 H   0  0  0  0  0  0  0  0  0  0  0  0
   -4.4942   -0.9836    5.0589 H   0  0  0  0  0  0  0  0  0  0  0  0
   -3.2114   -1.5972    3.1733 H   0  0  0  0  0  0  0  0  0  0  0  0
    3.5161    0.0996    3.9827 H   0  0  0  0  0  0  0  0  0  0  0  0
    1.8053    0.0354    5.6889 H   0  0  0  0  0  0  0  0  0  0  0  0
  1  2  1  0
  1  5  1  0
  2  3  1  0
  2  4  1  0
  2 11  1  0
  5  6  1  0
  5  7  1  0
  5  8  1  0
  8  9  1  0
  8 36  1  0
  8 37  1  0
  9 14  1  0
  9 18  1  0
  9 19  1  0
 10 11  1  0
 10 15  1  0
 10 34  1  0
 10 35  1  0
 11 12  1  0
 11 13  1  0
 14 16  1  0
 14 20  1  0
 14 21  1  0
 15 17  1  0
 15 32  1  0
 15 33  1  0
 16 24  1  0
 16 30  1  0
 16 31  1  0
 17 22  1  0
 17 23  1  0
 17 27  1  0
 24 25  1  0
 24 26  1  0
 24 27  1  0
 27 28  1  0
 27 29  1  0
M  CHG  1   1   1
M  RAD  1   1   2
M  END
$$$$
