
     RDKit          3D

 37 37  0  0  0  0  0  0  0  0999 V2000
   -0.5169   -1.1424    2.4464 S   0  0  0  0  0  2  0  0  0  0  0  0
   -1.2222   -3.0590    1.7575 Si  0  0  0  0  0  4  0  0  0  0  0  0
   -1.0591   -3.0490    0.2756 H   0  0  0  0  0  0  0  0  0  0  0  0
   -2.6447   -3.2350    2.0337 H   0  0  0  0  0  0  0  0  0  0  0  0
   -1.2583   -0.7194    4.4110 Si  0  0  0  0  0  4  0  0  0  0  0  0
   -0.6890    0.5631    4.8344 H   0  0  0  0  0  0  0  0  0  0  0  0
   -2.7231   -0.5676    4.4019 H   0  0  0  0  0  0  0  0  0  0  0  0
   -0.7251   -2.3180    5.8580 Si  0  0  0  0  0  4  0  0  0  0  0  0
    1.4586   -2.3529    6.2894 Si  0  0  0  0  0  4  0  0  0  0  0  0
   -1.1768   -6.3428    3.4371 Si  0  0  0  0  0  4  0  0  0  0  0  0
    0.0297   -4.7075    2.5552 Si  0  0  0  0  0  4  0  0  0  0  0  0
    0.9078   -4.1666    3.5877 H   0  0  0  0  0  0  0  0  0  0  0  0
    0.9008   -5.2991    1.5141 H   0  0  0  0  0  0  0  0  0  0  0  0
    2.0220   -4.4525    6.8509 Si  0  0  0  0  0  4  0  0  0  0  0  0
   -0.5846   -8.3399    2.6753 Si  0  0  0  0  0  4  0  0  0  0  0  0
    3.4299   -5.3302    5.3702 Si  0  0  0  0  0  4  0  0  0  0  0  0
    1.2462   -8.2487    1.4145 Si  0  0  0  0  0  4  0  0  0  0  0  0
    1.8516   -1.4065    7.3147 H   0  0  0  0  0  0  0  0  0  0  0  0
    2.1883   -1.9955    5.0479 H   0  0  0  0  0  0  0  0  0  0  0  0
    0.8269   -5.3120    6.9494 H   0  0  0  0  0  0  0  0  0  0  0  0
    2.6199   -4.4043    8.1957 H   0  0  0  0  0  0  0  0  0  0  0  0
    1.4303   -9.5878    0.8081 H   0  0  0  0  0  0  0  0  0  0  0  0
    0.9561   -7.3248    0.2875 H   0  0  0  0  0  0  0  0  0  0  0  0
    2.6827   -7.3436    4.6909 Si  0  0  0  0  0  4  0  0  0  0  0  0
    1.2604   -7.5003    4.9686 H   0  0  0  0  0  0  0  0  0  0  0  0
    3.4411   -8.3454    5.4836 H   0  0  0  0  0  0  0  0  0  0  0  0
    3.0361   -7.6454    2.5336 Si  0  0  0  0  0  4  0  0  0  0  0  0
    4.1065   -8.6505    2.3247 H   0  0  0  0  0  0  0  0  0  0  0  0
    3.5387   -6.3646    1.9671 H   0  0  0  0  0  0  0  0  0  0  0  0
    4.7970   -5.4151    5.8755 H   0  0  0  0  0  0  0  0  0  0  0  0
    3.3997   -4.4627    4.1665 H   0  0  0  0  0  0  0  0  0  0  0  0
   -0.4563   -9.3256    3.7434 H   0  0  0  0  0  0  0  0  0  0  0  0
   -1.6867   -8.8200    1.7918 H   0  0  0  0  0  0  0  0  0  0  0  0
   -2.6182   -6.0799    3.1955 H   0  0  0  0  0  0  0  0  0  0  0  0
   -1.0309   -6.3735    4.9205 H   0  0  0  0  0  0  0  0  0  0  0  0
   -1.4553   -2.0939    7.1026 H   0  0  0  0  0  0  0  0  0  0  0  0
   -1.0955   -3.6255    5.3083 H   0  0  0  0  0  0  0  0  0  0  0  0
  1  2  1  0
  1  5  1  0
  2  3  1  0
  2  4  1  0
  2 11  1  0
  5  6  1  0
  5  7  1  0
  5  8  1  0
  8  9  1  0
  8 36  1  0
  8 37  1  0
  9 14  1  0
  9 18  1  0
  9 19  1  0
 10 11  1  0
 10 15  1  0
 10 34  1  0
 10 35  1  0
 11 12  1  0
 11 13  1  0
 14 16  1  0
 14 20  1  0
 14 21  1  0
 15 17  1  0
 15 32  1  0
 15 33  1  0
 16 24  1  0
 16 30  1  0
 16 31  1  0
 17 22  1  0
 17 23  1  0
 17 27  1  0
 24 25  1  0
 24 26  1  0
 24 27  1  0
 27 28  1  0
 27 29  1  0
M  CHG  1   1   1
M  RAD  1   1   2
M  END
$$$$

     RDKit          3D

 37 37  0  0  0  0  0  0  0  0999 V2000
   -0.5169   -1.1424    2.4464 S   0  0  0  0  0  2  0  0  0  0  0  0
   -1.3199   -0.9236    4.4015 Si  0  0  0  0  0  4  0  0  0  0  0  0
   -2.7187   -1.4361    4.4112 H   0  0  0  0  0  0  0  0  0  0  0  0
   -1.4244    0.5202    4.6942 H   0  0  0  0  0  0  0  0  0  0  0  0
   -0.5911   -3.1663    1.7642 Si  0  0  0  0  0  4  0  0  0  0  0  0
   -1.0826   -3.2487    0.3680 H   0  0  0  0  0  0  0  0  0  0  0  0
    0.8019   -3.6606    1.7315 H   0  0  0  0  0  0  0  0  0  0  0  0
   -1.8872   -4.3704    3.0802 Si  0  0  0  0  0  4  0  0  0  0  0  0
   -2.5047   -6.2907    2.1928 Si  0  0  0  0  0  4  0  0  0  0  0  0
    1.8705   -2.5803    5.2551 Si  0  0  0  0  0  4  0  0  0  0  0  0
   -0.1041   -1.8798    5.9637 Si  0  0  0  0  0  4  0  0  0  0  0  0
   -0.8964   -2.9972    6.5521 H   0  0  0  0  0  0  0  0  0  0  0  0
    0.1323   -0.9428    7.0992 H   0  0  0  0  0  0  0  0  0  0  0  0
   -1.0162   -7.1316    0.7948 Si  0  0  0  0  0  4  0  0  0  0  0  0
    2.2904   -4.5330    6.2977 Si  0  0  0  0  0  4  0  0  0  0  0  0
    0.6047   -8.1330    1.9987 Si  0  0  0  0  0  4  0  0  0  0  0  0
    4.0919   -5.5181    5.4787 Si  0  0  0  0  0  4  0  0  0  0  0  0
   -3.8291   -6.2110    1.5201 H   0  0  0  0  0  0  0  0  0  0  0  0
   -2.6936   -7.2700    3.3004 H   0  0  0  0  0  0  0  0  0  0  0  0
   -0.4473   -6.0731   -0.0495 H   0  0  0  0  0  0  0  0  0  0  0  0
   -1.6061   -8.1385   -0.0755 H   0  0  0  0  0  0  0  0  0  0  0  0
    4.7309   -4.5840    4.5148 H   0  0  0  0  0  0  0  0  0  0  0  0
    5.0443   -5.9330    6.5157 H   0  0  0  0  0  0  0  0  0  0  0  0
    1.7910   -6.5578    2.9672 Si  0  0  0  0  0  4  0  0  0  0  0  0
    2.3708   -5.6831    1.9467 H   0  0  0  0  0  0  0  0  0  0  0  0
    0.8785   -5.7108    3.7793 H   0  0  0  0  0  0  0  0  0  0  0  0
    3.3879   -7.3056    4.2874 Si  0  0  0  0  0  4  0  0  0  0  0  0
    2.7890   -8.2319    5.2811 H   0  0  0  0  0  0  0  0  0  0  0  0
    4.4981   -7.9183    3.5762 H   0  0  0  0  0  0  0  0  0  0  0  0
   -0.1019   -8.9626    3.0088 H   0  0  0  0  0  0  0  0  0  0  0  0
    1.4541   -8.9488    1.1445 H   0  0  0  0  0  0  0  0  0  0  0  0
    1.0693   -5.3492    6.1223 H   0  0  0  0  0  0  0  0  0  0  0  0
    2.4313   -4.2782    7.7292 H   0  0  0  0  0  0  0  0  0  0  0  0
    1.9641   -2.7124    3.8149 H   0  0  0  0  0  0  0  0  0  0  0  0
    2.9435   -1.6487    5.6884 H   0  0  0  0  0  0  0  0  0  0  0  0
   -3.1135   -3.5757    3.3691 H   0  0  0  0  0  0  0  0  0  0  0  0
   -1.2402   -4.5849    4.3946 H   0  0  0  0  0  0  0  0  0  0  0  0
  1  2  1  0
  1  5  1  0
  2  3  1  0
  2  4  1  0
  2 11  1  0
  5  6  1  0
  5  7  1  0
  5  8  1  0
  8  9  1  0
  8 36  1  0
  8 37  1  0
  9 14  1  0
  9 18  1  0
  9 19  1  0
 10 11  1  0
 10 15  1  0
 10 34  1  0
 10 35  1  0
 11 12  1  0
 11 13  1  0
 14 16  1  0
 14 20  1  0
 14 21  1  0
 15 17  1  0
 15 32  1  0
 15 33  1  0
 16 24  1  0
 16 30  1  0
 16 31  1  0
 17 22  1  0
 17 23  1  0
 17 27  1  0
 24 25  1  0
 24 26  1  0
 24 27  1  0
 27 28  1  0
 27 29  1  0
M  CHG  1   1   1
M  RAD  1   1   2
M  END
$$$$

     RDKit          3D

 37 37  0  0  0  0  0  0  0  0999 V2000
   -0.5169   -1.1424    2.4464 S   0  0  0  0  0  2  0  0  0  0  0  0
   -2.2217   -2.4058    2.4537 Si  0  0  0  0  0  4  0  0  0  0  0  0
   -2.9864   -2.1159    1.2087 H   0  0  0  0  0  0  0  0  0  0  0  0
   -3.1442   -2.1237    3.5652 H   0  0  0  0  0  0  0  0  0  0  0  0
    0.7276   -1.3377    4.1216 Si  0  0  0  0  0  4  0  0  0  0  0  0
    2.0082   -1.9721    3.7015 H   0  0  0  0  0  0  0  0  0  0  0  0
    1.1126    0.0220    4.5979 H   0  0  0  0  0  0  0  0  0  0  0  0
   -0.1679   -2.4233    5.8158 Si  0  0  0  0  0  4  0  0  0  0  0  0
    1.3971   -2.5900    7.4282 Si  0  0  0  0  0  4  0  0  0  0  0  0
    0.1740   -4.9555    1.2871 Si  0  0  0  0  0  4  0  0  0  0  0  0
   -1.7019   -4.5606    2.4161 Si  0  0  0  0  0  4  0  0  0  0  0  0
   -2.7950   -5.2877    1.7086 H   0  0  0  0  0  0  0  0  0  0  0  0
   -1.6603   -5.1455    3.7749 H   0  0  0  0  0  0  0  0  0  0  0  0
    3.1440   -3.7782    6.7116 Si  0  0  0  0  0  4  0  0  0  0  0  0
    1.8639   -5.1215    2.7266 Si  0  0  0  0  0  4  0  0  0  0  0  0
    2.9309   -5.9238    7.2550 Si  0  0  0  0  0  4  0  0  0  0  0  0
    2.8282   -7.1222    2.6423 Si  0  0  0  0  0  4  0  0  0  0  0  0
    0.8581   -3.1624    8.6432 H   0  0  0  0  0  0  0  0  0  0  0  0
    1.8462   -1.2054    7.7245 H   0  0  0  0  0  0  0  0  0  0  0  0
    4.3465   -3.2570    7.3722 H   0  0  0  0  0  0  0  0  0  0  0  0
    3.2910   -3.5759    5.2704 H   0  0  0  0  0  0  0  0  0  0  0  0
    4.2970   -6.9385    2.5789 H   0  0  0  0  0  0  0  0  0  0  0  0
    2.4473   -7.8792    1.4499 H   0  0  0  0  0  0  0  0  0  0  0  0
    1.3733   -6.9398    6.0222 Si  0  0  0  0  0  4  0  0  0  0  0  0
    0.4302   -5.9957    5.4313 H   0  0  0  0  0  0  0  0  0  0  0  0
    0.5933   -7.8206    6.9246 H   0  0  0  0  0  0  0  0  0  0  0  0
    2.3378   -8.2479    4.4988 Si  0  0  0  0  0  4  0  0  0  0  0  0
    1.3885   -9.3216    4.1247 H   0  0  0  0  0  0  0  0  0  0  0  0
    3.5667   -8.8142    5.0913 H   0  0  0  0  0  0  0  0  0  0  0  0
    4.2223   -6.5968    7.0800 H   0  0  0  0  0  0  0  0  0  0  0  0
    2.5692   -5.9892    8.6872 H   0  0  0  0  0  0  0  0  0  0  0  0
    1.4093   -4.8017    4.0977 H   0  0  0  0  0  0  0  0  0  0  0  0
    2.8508   -4.0740    2.3667 H   0  0  0  0  0  0  0  0  0  0  0  0
    0.1008   -6.2194    0.5378 H   0  0  0  0  0  0  0  0  0  0  0  0
    0.3627   -3.8534    0.3327 H   0  0  0  0  0  0  0  0  0  0  0  0
   -0.6760   -3.7310    5.4452 H   0  0  0  0  0  0  0  0  0  0  0  0
   -1.2739   -1.6349    6.3684 H   0  0  0  0  0  0  0  0  0  0  0  0
  1  2  1  0
  1  5  1  0
  2  3  1  0
  2  4  1  0
  2 11  1  0
  5  6  1  0
  5  7  1  0
  5  8  1  0
  8  9  1  0
  8 36  1  0
  8 37  1  0
  9 14  1  0
  9 18  1  0
  9 19  1  0
 10 11  1  0
 10 15  1  0
 10 34  1  0
 10 35  1  0
 11 12  1  0
 11 13  1  0
 14 16  1  0
 14 20  1  0
 14 21  1  0
 15 17  1  0
 15 32  1  0
 15 33  1  0
 16 24  1  0
 16 30  1  0
 16 31  1  0
 17 22  1  0
 17 23  1  0
 17 27  1  0
 24 25  1  0
 24 26  1  0
 24 27  1  0
 27 28  1  0
 27 29  1  0
M  CHG  1   1   1
M  RAD  1   1   2
M  END
$$$$

     RDKit          3D

 37 37  0  0  0  0  0  0  0  0999 V2000
   -0.5169   -1.1424    2.4464 S   0  0  0  0  0  2  0  0  0  0  0  0
    0.6621   -2.8708    2.6789 Si  0  0  0  0  0  4  0  0  0  0  0  0
    0.0275   -4.0896    2.1392 H   0  0  0  0  0  0  0  0  0  0  0  0
    1.9172   -2.6945    1.8925 H   0  0  0  0  0  0  0  0  0  0  0  0
   -2.0434   -0.9295    3.9052 Si  0  0  0  0  0  4  0  0  0  0  0  0
   -2.6484    0.4186    3.7259 H   0  0  0  0  0  0  0  0  0  0  0  0
   -1.5058   -0.9309    5.2915 H   0  0  0  0  0  0  0  0  0  0  0  0
   -3.6701   -2.4176    3.6790 Si  0  0  0  0  0  4  0  0  0  0  0  0
   -3.2810   -4.2788    4.8176 Si  0  0  0  0  0  4  0  0  0  0  0  0
    2.6032   -5.0748    4.7504 Si  0  0  0  0  0  4  0  0  0  0  0  0
    1.2549   -3.2691    4.7792 Si  0  0  0  0  0  4  0  0  0  0  0  0
    2.0622   -2.1421    5.3158 H   0  0  0  0  0  0  0  0  0  0  0  0
    0.1237   -3.4603    5.6643 H   0  0  0  0  0  0  0  0  0  0  0  0
   -2.8868   -5.9739    3.3987 Si  0  0  0  0  0  4  0  0  0  0  0  0
    2.4389   -6.2404    6.6168 Si  0  0  0  0  0  4  0  0  0  0  0  0
   -2.7910   -7.9072    4.4964 Si  0  0  0  0  0  4  0  0  0  0  0  0
    0.4601   -6.0510    7.5895 Si  0  0  0  0  0  4  0  0  0  0  0  0
   -2.1841   -4.1165    5.7565 H   0  0  0  0  0  0  0  0  0  0  0  0
   -4.4741   -4.6789    5.6141 H   0  0  0  0  0  0  0  0  0  0  0  0
   -3.9211   -5.9746    2.3577 H   0  0  0  0  0  0  0  0  0  0  0  0
   -1.6046   -5.7364    2.7646 H   0  0  0  0  0  0  0  0  0  0  0  0
   -0.3167   -4.9388    7.0382 H   0  0  0  0  0  0  0  0  0  0  0  0
    0.6952   -5.7819    9.0361 H   0  0  0  0  0  0  0  0  0  0  0  0
   -2.7730   -7.4732    6.6893 Si  0  0  0  0  0  4  0  0  0  0  0  0
   -3.8052   -8.2607    7.3548 H   0  0  0  0  0  0  0  0  0  0  0  0
   -3.0358   -6.0436    6.9566 H   0  0  0  0  0  0  0  0  0  0  0  0
   -0.7284   -7.9272    7.4622 Si  0  0  0  0  0  4  0  0  0  0  0  0
   -0.1065   -8.9169    6.5843 H   0  0  0  0  0  0  0  0  0  0  0  0
   -0.8960   -8.5652    8.7863 H   0  0  0  0  0  0  0  0  0  0  0  0
   -1.5693   -8.6632    4.0983 H   0  0  0  0  0  0  0  0  0  0  0  0
   -3.9303   -8.7572    4.1402 H   0  0  0  0  0  0  0  0  0  0  0  0
    3.5457   -5.8196    7.5194 H   0  0  0  0  0  0  0  0  0  0  0  0
    2.7234   -7.6672    6.2960 H   0  0  0  0  0  0  0  0  0  0  0  0
    3.9653   -4.6127    4.5309 H   0  0  0  0  0  0  0  0  0  0  0  0
    2.2244   -5.9546    3.6103 H   0  0  0  0  0  0  0  0  0  0  0  0
   -4.9137   -1.8092    4.2311 H   0  0  0  0  0  0  0  0  0  0  0  0
   -3.8951   -2.7239    2.2759 H   0  0  0  0  0  0  0  0  0  0  0  0
  1  2  1  0
  1  5  1  0
  2  3  1  0
  2  4  1  0
  2 11  1  0
  5  6  1  0
  5  7  1  0
  5  8  1  0
  8  9  1  0
  8 36  1  0
  8 37  1  0
  9 14  1  0
  9 18  1  0
  9 19  1  0
 10 11  1  0
 10 15  1  0
 10 34  1  0
 10 35  1  0
 11 12  1  0
 11 13  1  0
 14 16  1  0
 14 20  1  0
 14 21  1  0
 15 17  1  0
 15 32  1  0
 15 33  1  0
 16 24  1  0
 16 30  1  0
 16 31  1  0
 17 22  1  0
 17 23  1  0
 17 27  1  0
 24 25  1  0
 24 26  1  0
 24 27  1  0
 27 28  1  0
 27 29  1  0
M  CHG  1   1   1
M  RAD  1   1   2
M  END
$$$$

     RDKit          3D

 37 37  0  0  0  0  0  0  0  0999 V2000
   -0.5169   -1.1424    2.4464 S   0  0  0  0  0  2  0  0  0  0  0  0
    0.3162   -1.5244    4.3824 Si  0  0  0  0  0  4  0  0  0  0  0  0
   -0.5363   -2.3452    5.2155 H   0  0  0  0  0  0  0  0  0  0  0  0
    0.4761   -0.2132    5.0523 H   0  0  0  0  0  0  0  0  0  0  0  0
   -1.3662   -2.9196    1.5900 Si  0  0  0  0  0  4  0  0  0  0  0  0
   -0.5714   -3.3634    0.4355 H   0  0  0  0  0  0  0  0  0  0  0  0
   -2.7358   -2.5758    1.1150 H   0  0  0  0  0  0  0  0  0  0  0  0
   -1.5499   -4.4422    3.1687 Si  0  0  0  0  0  4  0  0  0  0  0  0
   -1.1039   -6.5015    2.4327 Si  0  0  0  0  0  4  0  0  0  0  0  0
    3.1381   -3.1619    6.0900 Si  0  0  0  0  0  4  0  0  0  0  0  0
    2.3785   -2.3833    4.1716 Si  0  0  0  0  0  4  0  0  0  0  0  0
    3.2512   -1.2444    3.7629 H   0  0  0  0  0  0  0  0  0  0  0  0
    2.4408   -3.3575    3.0870 H   0  0  0  0  0  0  0  0  0  0  0  0
    1.0515   -6.8770    2.5395 Si  0  0  0  0  0  4  0  0  0  0  0  0
    2.5969   -5.3315    6.3793 Si  0  0  0  0  0  4  0  0  0  0  0  0
    1.6474   -8.5635    3.8116 Si  0  0  0  0  0  4  0  0  0  0  0  0
    0.5278   -5.4541    7.1185 Si  0  0  0  0  0  4  0  0  0  0  0  0
   -1.9167   -7.5154    3.1524 H   0  0  0  0  0  0  0  0  0  0  0  0
   -1.5850   -6.5532    1.0213 H   0  0  0  0  0  0  0  0  0  0  0  0
    1.5773   -7.1183    1.1641 H   0  0  0  0  0  0  0  0  0  0  0  0
    1.7742   -5.6618    3.0127 H   0  0  0  0  0  0  0  0  0  0  0  0
   -0.1915   -4.2174    6.6911 H   0  0  0  0  0  0  0  0  0  0  0  0
    0.5631   -5.3609    8.6077 H   0  0  0  0  0  0  0  0  0  0  0  0
    0.5475   -8.8640    5.6451 Si  0  0  0  0  0  4  0  0  0  0  0  0
   -0.4136   -9.9980    5.4839 H   0  0  0  0  0  0  0  0  0  0  0  0
    1.4662   -9.3267    6.7276 H   0  0  0  0  0  0  0  0  0  0  0  0
   -0.6178   -7.1787    6.4230 Si  0  0  0  0  0  4  0  0  0  0  0  0
   -1.6801   -6.8319    5.4406 H   0  0  0  0  0  0  0  0  0  0  0  0
   -1.3881   -7.7067    7.5926 H   0  0  0  0  0  0  0  0  0  0  0  0
    1.5858   -9.7970    2.9706 H   0  0  0  0  0  0  0  0  0  0  0  0
    3.1022   -8.4089    4.1159 H   0  0  0  0  0  0  0  0  0  0  0  0
    2.8612   -6.1043    5.1884 H   0  0  0  0  0  0  0  0  0  0  0  0
    3.5218   -5.8303    7.4388 H   0  0  0  0  0  0  0  0  0  0  0  0
    2.5578   -2.4197    7.2175 H   0  0  0  0  0  0  0  0  0  0  0  0
    4.5877   -3.0575    6.1714 H   0  0  0  0  0  0  0  0  0  0  0  0
   -2.9015   -4.4761    3.7720 H   0  0  0  0  0  0  0  0  0  0  0  0
   -0.6070   -4.1403    4.2492 H   0  0  0  0  0  0  0  0  0  0  0  0
  1  2  1  0
  1  5  1  0
  2  3  1  0
  2  4  1  0
  2 11  1  0
  5  6  1  0
  5  7  1  0
  5  8  1  0
  8  9  1  0
  8 36  1  0
  8 37  1  0
  9 14  1  0
  9 18  1  0
  9 19  1  0
 10 11  1  0
 10 15  1  0
 10 34  1  0
 10 35  1  0
 11 12  1  0
 11 13  1  0
 14 16  1  0
 14 20  1  0
 14 21  1  0
 15 17  1  0
 15 32  1  0
 15 33  1  0
 16 24  1  0
 16 30  1  0
 16 31  1  0
 17 22  1  0
 17 23  1  0
 17 27  1  0
 24 25  1  0
 24 26  1  0
 24 27  1  0
 27 28  1  0
 27 29  1  0
M  CHG  1   1   1
M  RAD  1   1   2
M  END
$$$$

     RDKit          3D

 37 37  0  0  0  0  0  0  0  0999 V2000
   -0.5169   -1.1424    2.4464 S   0  0  0  0  0  2  0  0  0  0  0  0
    1.4365   -1.7475    2.9944 Si  0  0  0  0  0  4  0  0  0  0  0  0
    2.4033   -1.0161    2.1267 H   0  0  0  0  0  0  0  0  0  0  0  0
    1.7317   -1.2825    4.3754 H   0  0  0  0  0  0  0  0  0  0  0  0
   -1.1475    0.6275    3.5000 Si  0  0  0  0  0  4  0  0  0  0  0  0
   -2.4308    1.0516    2.8801 H   0  0  0  0  0  0  0  0  0  0  0  0
   -0.1959    1.7212    3.3369 H   0  0  0  0  0  0  0  0  0  0  0  0
   -1.5301    0.1785    5.6583 Si  0  0  0  0  0  4  0  0  0  0  0  0
   -1.6304   -2.0446    5.8544 Si  0  0  0  0  0  4  0  0  0  0  0  0
   -0.0843   -5.1103    2.9530 Si  0  0  0  0  0  4  0  0  0  0  0  0
    1.7998   -3.9074    2.7433 Si  0  0  0  0  0  4  0  0  0  0  0  0
    2.7728   -4.3364    3.7805 H   0  0  0  0  0  0  0  0  0  0  0  0
    2.4555   -4.1801    1.4447 H   0  0  0  0  0  0  0  0  0  0  0  0
   -1.3370   -2.7389    7.9158 Si  0  0  0  0  0  4  0  0  0  0  0  0
    0.0937   -6.4759    4.6797 Si  0  0  0  0  0  4  0  0  0  0  0  0
   -3.0733   -4.0319    8.4920 Si  0  0  0  0  0  4  0  0  0  0  0  0
   -1.7785   -6.7225    5.8066 Si  0  0  0  0  0  4  0  0  0  0  0  0
   -2.9455   -2.4625    5.3046 H   0  0  0  0  0  0  0  0  0  0  0  0
   -0.5254   -2.5678    5.0100 H   0  0  0  0  0  0  0  0  0  0  0  0
   -0.1253   -3.5970    8.0302 H   0  0  0  0  0  0  0  0  0  0  0  0
   -1.1467   -1.6427    8.8765 H   0  0  0  0  0  0  0  0  0  0  0  0
   -2.1797   -8.1578    5.7887 H   0  0  0  0  0  0  0  0  0  0  0  0
   -1.5321   -6.4105    7.2436 H   0  0  0  0  0  0  0  0  0  0  0  0
   -4.4291   -4.3707    6.7533 Si  0  0  0  0  0  4  0  0  0  0  0  0
   -4.9909   -3.0800    6.3343 H   0  0  0  0  0  0  0  0  0  0  0  0
   -5.5455   -5.2007    7.2315 H   0  0  0  0  0  0  0  0  0  0  0  0
   -3.4198   -5.4322    5.0973 Si  0  0  0  0  0  4  0  0  0  0  0  0
   -4.4279   -6.3040    4.4254 H   0  0  0  0  0  0  0  0  0  0  0  0
   -2.9494   -4.5073    4.0466 H   0  0  0  0  0  0  0  0  0  0  0  0
   -2.6454   -5.2856    9.0972 H   0  0  0  0  0  0  0  0  0  0  0  0
   -3.8458   -3.2763    9.5034 H   0  0  0  0  0  0  0  0  0  0  0  0
    1.1763   -5.9737    5.5636 H   0  0  0  0  0  0  0  0  0  0  0  0
    0.5798   -7.7914    4.1787 H   0  0  0  0  0  0  0  0  0  0  0  0
   -0.2721   -5.8640    1.7023 H   0  0  0  0  0  0  0  0  0  0  0  0
   -1.1778   -4.1555    3.0986 H   0  0  0  0  0  0  0  0  0  0  0  0
   -2.8600    0.7061    6.0489 H   0  0  0  0  0  0  0  0  0  0  0  0
   -0.5105    0.7595    6.5244 H   0  0  0  0  0  0  0  0  0  0  0  0
  1  2  1  0
  1  5  1  0
  2  3  1  0
  2  4  1  0
  2 11  1  0
  5  6  1  0
  5  7  1  0
  5  8  1  0
  8  9  1  0
  8 36  1  0
  8 37  1  0
  9 14  1  0
  9 18  1  0
  9 19  1  0
 10 11  1  0
 10 15  1  0
 10 34  1  0
 10 35  1  0
 11 12  1  0
 11 13  1  0
 14 16  1  0
 14 20  1  0
 14 21  1  0
 15 17  1  0
 15 32  1  0
 15 33  1  0
 16 24  1  0
 16 30  1  0
 16 31  1  0
 17 22  1  0
 17 23  1  0
 17 27  1  0
 24 25  1  0
 24 26  1  0
 24 27  1  0
 27 28  1  0
 27 29  1  0
M  CHG  1   1   1
M  RAD  1   1   2
M  END
$$$$

     RDKit          3D

 37 37  0  0  0  0  0  0  0  0999 V2000
   -0.5169   -1.1424    2.4464 S   0  0  0  0  0  2  0  0  0  0  0  0
    1.1487   -2.2845    3.0403 Si  0  0  0  0  0  4  0  0  0  0  0  0
    1.0868   -3.6889    2.5894 H   0  0  0  0  0  0  0  0  0  0  0  0
    2.3662   -1.7132    2.3952 H   0  0  0  0  0  0  0  0  0  0  0  0
   -2.2306   -1.4041    3.6705 Si  0  0  0  0  0  4  0  0  0  0  0  0
   -3.2406   -0.3960    3.2473 H   0  0  0  0  0  0  0  0  0  0  0  0
   -1.9568   -1.1007    5.1001 H   0  0  0  0  0  0  0  0  0  0  0  0
   -3.1593   -3.4035    3.4430 Si  0  0  0  0  0  4  0  0  0  0  0  0
   -2.3178   -4.8945    4.8504 Si  0  0  0  0  0  4  0  0  0  0  0  0
    3.3920   -3.4442    5.5975 Si  0  0  0  0  0  4  0  0  0  0  0  0
    1.5012   -2.2740    5.2305 Si  0  0  0  0  0  4  0  0  0  0  0  0
    1.7554   -0.8904    5.7110 H   0  0  0  0  0  0  0  0  0  0  0  0
    0.3873   -2.8055    5.9897 H   0  0  0  0  0  0  0  0  0  0  0  0
   -1.1225   -6.4224    3.7198 Si  0  0  0  0  0  4  0  0  0  0  0  0
    3.3594   -4.4430    7.5650 Si  0  0  0  0  0  4  0  0  0  0  0  0
   -0.5185   -8.0924    5.0607 Si  0  0  0  0  0  4  0  0  0  0  0  0
    1.3155   -4.9315    8.2589 Si  0  0  0  0  0  4  0  0  0  0  0  0
   -1.5163   -4.2650    5.8861 H   0  0  0  0  0  0  0  0  0  0  0  0
   -3.3998   -5.6489    5.5418 H   0  0  0  0  0  0  0  0  0  0  0  0
   -1.9076   -6.8867    2.5703 H   0  0  0  0  0  0  0  0  0  0  0  0
    0.0737   -5.7730    3.2199 H   0  0  0  0  0  0  0  0  0  0  0  0
    0.2911   -4.2336    7.4792 H   0  0  0  0  0  0  0  0  0  0  0  0
    1.2046   -4.4860    9.6765 H   0  0  0  0  0  0  0  0  0  0  0  0
   -1.0073   -7.5190    7.1655 Si  0  0  0  0  0  4  0  0  0  0  0  0
   -1.7818   -8.5818    7.7973 H   0  0  0  0  0  0  0  0  0  0  0  0
   -1.8029   -6.2744    7.2127 H   0  0  0  0  0  0  0  0  0  0  0  0
    0.9129   -7.1193    8.2317 Si  0  0  0  0  0  4  0  0  0  0  0  0
    1.9792   -7.8692    7.5702 H   0  0  0  0  0  0  0  0  0  0  0  0
    0.7753   -7.6720    9.5969 H   0  0  0  0  0  0  0  0  0  0  0  0
    0.9395   -8.3666    4.9138 H   0  0  0  0  0  0  0  0  0  0  0  0
   -1.2060   -9.3298    4.6821 H   0  0  0  0  0  0  0  0  0  0  0  0
    4.0832   -3.5736    8.5329 H   0  0  0  0  0  0  0  0  0  0  0  0
    4.1824   -5.6810    7.4673 H   0  0  0  0  0  0  0  0  0  0  0  0
    4.5151   -2.5260    5.4865 H   0  0  0  0  0  0  0  0  0  0  0  0
    3.5400   -4.4850    4.5430 H   0  0  0  0  0  0  0  0  0  0  0  0
   -4.6093   -3.2623    3.7578 H   0  0  0  0  0  0  0  0  0  0  0  0
   -3.0328   -3.8763    2.0742 H   0  0  0  0  0  0  0  0  0  0  0  0
  1  2  1  0
  1  5  1  0
  2  3  1  0
  2  4  1  0
  2 11  1  0
  5  6  1  0
  5  7  1  0
  5  8  1  0
  8  9  1  0
  8 36  1  0
  8 37  1  0
  9 14  1  0
  9 18  1  0
  9 19  1  0
 10 11  1  0
 10 15  1  0
 10 34  1  0
 10 35  1  0
 11 12  1  0
 11 13  1  0
 14 16  1  0
 14 20  1  0
 14 21  1  0
 15 17  1  0
 15 32  1  0
 15 33  1  0
 16 24  1  0
 16 30  1  0
 16 31  1  0
 17 22  1  0
 17 23  1  0
 17 27  1  0
 24 25  1  0
 24 26  1  0
 24 27  1  0
 27 28  1  0
 27 29  1  0
M  CHG  1   1   1
M  RAD  1   1   2
M  END
$$$$

     RDKit          3D

 37 37  0  0  0  0  0  0  0  0999 V2000
   -0.5169   -1.1424    2.4464 S   0  0  0  0  0  2  0  0  0  0  0  0
    0.5955   -2.9189    2.6418 Si  0  0  0  0  0  4  0  0  0  0  0  0
   -0.0954   -4.1052    2.0988 H   0  0  0  0  0  0  0  0  0  0  0  0
    1.8446   -2.7837    1.8380 H   0  0  0  0  0  0  0  0  0  0  0  0
   -2.0114   -0.8857    3.9310 Si  0  0  0  0  0  4  0  0  0  0  0  0
   -2.5647    0.4874    3.7757 H   0  0  0  0  0  0  0  0  0  0  0  0
   -1.4534   -0.9243    5.3087 H   0  0  0  0  0  0  0  0  0  0  0  0
   -3.6995   -2.3051    3.7139 Si  0  0  0  0  0  4  0  0  0  0  0  0
   -3.3680   -4.1933    4.8262 Si  0  0  0  0  0  4  0  0  0  0  0  0
    2.4780   -5.2220    4.6588 Si  0  0  0  0  0  4  0  0  0  0  0  0
    1.2035   -3.3645    4.7282 Si  0  0  0  0  0  4  0  0  0  0  0  0
    2.0632   -2.2768    5.2643 H   0  0  0  0  0  0  0  0  0  0  0  0
    0.0791   -3.5207    5.6286 H   0  0  0  0  0  0  0  0  0  0  0  0
   -3.0634   -5.8863    3.3830 Si  0  0  0  0  0  4  0  0  0  0  0  0
    2.2955   -6.4014    6.5149 Si  0  0  0  0  0  4  0  0  0  0  0  0
   -3.0283   -7.8344    4.4580 Si  0  0  0  0  0  4  0  0  0  0  0  0
    0.3407   -6.1446    7.5202 Si  0  0  0  0  0  4  0  0  0  0  0  0
   -2.2514   -4.0855    5.7495 H   0  0  0  0  0  0  0  0  0  0  0  0
   -4.5640   -4.5547    5.6367 H   0  0  0  0  0  0  0  0  0  0  0  0
   -4.1124   -5.8340    2.3583 H   0  0  0  0  0  0  0  0  0  0  0  0
   -1.7824   -5.6929    2.7316 H   0  0  0  0  0  0  0  0  0  0  0  0
   -0.3993   -4.9961    6.9931 H   0  0  0  0  0  0  0  0  0  0  0  0
    0.6082   -5.9016    8.9658 H   0  0  0  0  0  0  0  0  0  0  0  0
   -2.9599   -7.4266    6.6550 Si  0  0  0  0  0  4  0  0  0  0  0  0
   -4.0126   -8.1800    7.3278 H   0  0  0  0  0  0  0  0  0  0  0  0
   -3.1613   -5.9909    6.9418 H   0  0  0  0  0  0  0  0  0  0  0  0
   -0.9236   -7.9705    7.3910 Si  0  0  0  0  0  4  0  0  0  0  0  0
   -0.3551   -8.9740    6.4929 H   0  0  0  0  0  0  0  0  0  0  0  0
   -1.0966   -8.6164    8.7105 H   0  0  0  0  0  0  0  0  0  0  0  0
   -1.8440   -8.6338    4.0328 H   0  0  0  0  0  0  0  0  0  0  0  0
   -4.2060   -8.6343    4.1104 H   0  0  0  0  0  0  0  0  0  0  0  0
    3.4317   -6.0354    7.4046 H   0  0  0  0  0  0  0  0  0  0  0  0
    2.5178   -7.8346    6.1742 H   0  0  0  0  0  0  0  0  0  0  0  0
    3.8540   -4.8120    4.4232 H   0  0  0  0  0  0  0  0  0  0  0  0
    2.0472   -6.0729    3.5153 H   0  0  0  0  0  0  0  0  0  0  0  0
   -4.9094   -1.6541    4.2919 H   0  0  0  0  0  0  0  0  0  0  0  0
   -3.9578   -2.5862    2.3113 H   0  0  0  0  0  0  0  0  0  0  0  0
  1  2  1  0
  1  5  1  0
  2  3  1  0
  2  4  1  0
  2 11  1  0
  5  6  1  0
  5  7  1  0
  5  8  1  0
  8  9  1  0
  8 36  1  0
  8 37  1  0
  9 14  1  0
  9 18  1  0
  9 19  1  0
 10 11  1  0
 10 15  1  0
 10 34  1  0
 10 35  1  0
 11 12  1  0
 11 13  1  0
 14 16  1  0
 14 20  1  0
 14 21  1  0
 15 17  1  0
 15 32  1  0
 15 33  1  0
 16 24  1  0
 16 30  1  0
 16 31  1  0
 17 22  1  0
 17 23  1  0
 17 27  1  0
 24 25  1  0
 24 26  1  0
 24 27  1  0
 27 28  1  0
 27 29  1  0
M  CHG  1   1   1
M  RAD  1   1   2
M  END
$$$$

     RDKit          3D

 37 37  0  0  0  0  0  0  0  0999 V2000
   -0.5169   -1.1424    2.4464 S   0  0  0  0  0  2  0  0  0  0  0  0
    0.3294   -1.5794    4.3649 Si  0  0  0  0  0  4  0  0  0  0  0  0
   -0.5426   -2.3751    5.2022 H   0  0  0  0  0  0  0  0  0  0  0  0
    0.5517   -0.2834    5.0465 H   0  0  0  0  0  0  0  0  0  0  0  0
   -1.4494   -2.8745    1.5841 Si  0  0  0  0  0  4  0  0  0  0  0  0
   -0.6905   -3.3363    0.4126 H   0  0  0  0  0  0  0  0  0  0  0  0
   -2.8112   -2.4710    1.1342 H   0  0  0  0  0  0  0  0  0  0  0  0
   -1.6699   -4.4065    3.1488 Si  0  0  0  0  0  4  0  0  0  0  0  0
   -1.3177   -6.4734    2.3837 Si  0  0  0  0  0  4  0  0  0  0  0  0
    3.1091   -3.3473    6.0106 Si  0  0  0  0  0  4  0  0  0  0  0  0
    2.3523   -2.5172    4.1128 Si  0  0  0  0  0  4  0  0  0  0  0  0
    3.2636   -1.4093    3.7030 H   0  0  0  0  0  0  0  0  0  0  0  0
    2.3593   -3.4806    3.0169 H   0  0  0  0  0  0  0  0  0  0  0  0
    0.8223   -6.9355    2.4529 Si  0  0  0  0  0  4  0  0  0  0  0  0
    2.4860   -5.4969    6.2847 Si  0  0  0  0  0  4  0  0  0  0  0  0
    1.3694   -8.6589    3.6972 Si  0  0  0  0  0  4  0  0  0  0  0  0
    0.4251   -5.5455    7.0546 Si  0  0  0  0  0  4  0  0  0  0  0  0
   -2.1594   -7.4624    3.1049 H   0  0  0  0  0  0  0  0  0  0  0  0
   -1.8218   -6.4898    0.9795 H   0  0  0  0  0  0  0  0  0  0  0  0
    1.3172   -7.1818    1.0669 H   0  0  0  0  0  0  0  0  0  0  0  0
    1.6000   -5.7556    2.9280 H   0  0  0  0  0  0  0  0  0  0  0  0
   -0.2506   -4.2763    6.6519 H   0  0  0  0  0  0  0  0  0  0  0  0
    0.4865   -5.4709    8.5440 H   0  0  0  0  0  0  0  0  0  0  0  0
    0.2863   -8.9364    5.5442 Si  0  0  0  0  0  4  0  0  0  0  0  0
   -0.7217  -10.0294    5.3857 H   0  0  0  0  0  0  0  0  0  0  0  0
    1.2020   -9.4477    6.6073 H   0  0  0  0  0  0  0  0  0  0  0  0
   -0.7988   -7.2151    6.3584 Si  0  0  0  0  0  4  0  0  0  0  0  0
   -1.8612   -6.8150    5.3964 H   0  0  0  0  0  0  0  0  0  0  0  0
   -1.5719   -7.7254    7.5341 H   0  0  0  0  0  0  0  0  0  0  0  0
    1.2459   -9.8793    2.8439 H   0  0  0  0  0  0  0  0  0  0  0  0
    2.8337   -8.5659    3.9805 H   0  0  0  0  0  0  0  0  0  0  0  0
    2.7013   -6.2659    5.0816 H   0  0  0  0  0  0  0  0  0  0  0  0
    3.4061   -6.0442    7.3242 H   0  0  0  0  0  0  0  0  0  0  0  0
    2.5760   -2.5956    7.1550 H   0  0  0  0  0  0  0  0  0  0  0  0
    4.5628   -3.3017    6.0706 H   0  0  0  0  0  0  0  0  0  0  0  0
   -3.0126   -4.3935    3.7726 H   0  0  0  0  0  0  0  0  0  0  0  0
   -0.6995   -4.1548    4.2178 H   0  0  0  0  0  0  0  0  0  0  0  0
  1  2  1  0
  1  5  1  0
  2  3  1  0
  2  4  1  0
  2 11  1  0
  5  6  1  0
  5  7  1  0
  5  8  1  0
  8  9  1  0
  8 36  1  0
  8 37  1  0
  9 14  1  0
  9 18  1  0
  9 19  1  0
 10 11  1  0
 10 15  1  0
 10 34  1  0
 10 35  1  0
 11 12  1  0
 11 13  1  0
 14 16  1  0
 14 20  1  0
 14 21  1  0
 15 17  1  0
 15 32  1  0
 15 33  1  0
 16 24  1  0
 16 30  1  0
 16 31  1  0
 17 22  1  0
 17 23  1  0
 17 27  1  0
 24 25  1  0
 24 26  1  0
 24 27  1  0
 27 28  1  0
 27 29  1  0
M  CHG  1   1   1
M  RAD  1   1   2
M  END
$$$$

     RDKit          3D

 37 37  0  0  0  0  0  0  0  0999 V2000
   -0.5169   -1.1424    2.4464 S   0  0  0  0  0  2  0  0  0  0  0  0
    1.4567   -1.6114    3.0523 Si  0  0  0  0  0  4  0  0  0  0  0  0
    2.3964   -0.8345    2.1945 H   0  0  0  0  0  0  0  0  0  0  0  0
    1.6869   -1.1049    4.4311 H   0  0  0  0  0  0  0  0  0  0  0  0
   -1.2853    0.6012    3.4513 Si  0  0  0  0  0  4  0  0  0  0  0  0
   -2.5770    0.9313    2.7930 H   0  0  0  0  0  0  0  0  0  0  0  0
   -0.4016    1.7507    3.2907 H   0  0  0  0  0  0  0  0  0  0  0  0
   -1.6927    0.1655    5.6079 Si  0  0  0  0  0  4  0  0  0  0  0  0
   -1.6560   -2.0558    5.8429 Si  0  0  0  0  0  4  0  0  0  0  0  0
    0.1548   -5.0651    3.0372 Si  0  0  0  0  0  4  0  0  0  0  0  0
    1.9631   -3.7475    2.8504 Si  0  0  0  0  0  4  0  0  0  0  0  0
    2.9351   -4.0954    3.9185 H   0  0  0  0  0  0  0  0  0  0  0  0
    2.6673   -3.9997    1.5733 H   0  0  0  0  0  0  0  0  0  0  0  0
   -1.3709   -2.6945    7.9234 Si  0  0  0  0  0  4  0  0  0  0  0  0
    0.3760   -6.3867    4.7929 Si  0  0  0  0  0  4  0  0  0  0  0  0
   -3.0351   -4.0862    8.4818 Si  0  0  0  0  0  4  0  0  0  0  0  0
   -1.5044   -6.7337    5.8789 Si  0  0  0  0  0  4  0  0  0  0  0  0
   -2.9275   -2.5666    5.2697 H   0  0  0  0  0  0  0  0  0  0  0  0
   -0.4990   -2.5214    5.0352 H   0  0  0  0  0  0  0  0  0  0  0  0
   -0.1102   -3.4710    8.0828 H   0  0  0  0  0  0  0  0  0  0  0  0
   -1.2751   -1.5721    8.8678 H   0  0  0  0  0  0  0  0  0  0  0  0
   -1.8127   -8.1919    5.8782 H   0  0  0  0  0  0  0  0  0  0  0  0
   -1.3145   -6.3820    7.3154 H   0  0  0  0  0  0  0  0  0  0  0  0
   -4.3225   -4.5410    6.7176 Si  0  0  0  0  0  4  0  0  0  0  0  0
   -4.9547   -3.2963    6.2613 H   0  0  0  0  0  0  0  0  0  0  0  0
   -5.3954   -5.4326    7.1843 H   0  0  0  0  0  0  0  0  0  0  0  0
   -3.2062   -5.5637    5.1065 Si  0  0  0  0  0  4  0  0  0  0  0  0
   -4.1395   -6.5097    4.4269 H   0  0  0  0  0  0  0  0  0  0  0  0
   -2.7694   -4.6286    4.0503 H   0  0  0  0  0  0  0  0  0  0  0  0
   -2.5436   -5.2993    9.1204 H   0  0  0  0  0  0  0  0  0  0  0  0
   -3.8795   -3.3646    9.4601 H   0  0  0  0  0  0  0  0  0  0  0  0
    1.4019   -5.8010    5.6930 H   0  0  0  0  0  0  0  0  0  0  0  0
    0.9575   -7.6767    4.3283 H   0  0  0  0  0  0  0  0  0  0  0  0
    0.0470   -5.8506    1.7967 H   0  0  0  0  0  0  0  0  0  0  0  0
   -1.0006   -4.1801    3.1386 H   0  0  0  0  0  0  0  0  0  0  0  0
   -3.0629    0.6132    5.9564 H   0  0  0  0  0  0  0  0  0  0  0  0
   -0.7343    0.8254    6.4872 H   0  0  0  0  0  0  0  0  0  0  0  0
  1  2  1  0
  1  5  1  0
  2  3  1  0
  2  4  1  0
  2 11  1  0
  5  6  1  0
  5  7  1  0
  5  8  1  0
  8  9  1  0
  8 36  1  0
  8 37  1  0
  9 14  1  0
  9 18  1  0
  9 19  1  0
 10 11  1  0
 10 15  1  0
 10 34  1  0
 10 35  1  0
 11 12  1  0
 11 13  1  0
 14 16  1  0
 14 20  1  0
 14 21  1  0
 15 17  1  0
 15 32  1  0
 15 33  1  0
 16 24  1  0
 16 30  1  0
 16 31  1  0
 17 22  1  0
 17 23  1  0
 17 27  1  0
 24 25  1  0
 24 26  1  0
 24 27  1  0
 27 28  1  0
 27 29  1  0
M  CHG  1   1   1
M  RAD  1   1   2
M  END
$$$$

     RDKit          3D

 37 37  0  0  0  0  0  0  0  0999 V2000
   -0.5169   -1.1424    2.4464 S   0  0  0  0  0  2  0  0  0  0  0  0
   -2.5384   -1.7662    2.6109 Si  0  0  0  0  0  4  0  0  0  0  0  0
   -3.2930   -1.0983    1.5141 H   0  0  0  0  0  0  0  0  0  0  0  0
   -3.1777   -1.3274    3.8618 H   0  0  0  0  0  0  0  0  0  0  0  0
    0.7662   -1.9295    3.9049 Si  0  0  0  0  0  4  0  0  0  0  0  0
    1.6970   -2.8967    3.2591 H   0  0  0  0  0  0  0  0  0  0  0  0
    1.6435   -0.8374    4.4161 H   0  0  0  0  0  0  0  0  0  0  0  0
   -0.2496   -2.8491    5.6294 Si  0  0  0  0  0  4  0  0  0  0  0  0
    1.3353   -3.7076    6.9814 Si  0  0  0  0  0  4  0  0  0  0  0  0
   -1.3054   -4.8084    0.9299 Si  0  0  0  0  0  4  0  0  0  0  0  0
   -2.7938   -3.9522    2.3446 Si  0  0  0  0  0  4  0  0  0  0  0  0
   -4.1417   -4.1916    1.7532 H   0  0  0  0  0  0  0  0  0  0  0  0
   -2.8017   -4.6719    3.6377 H   0  0  0  0  0  0  0  0  0  0  0  0
    2.4787   -5.3128    5.9358 Si  0  0  0  0  0  4  0  0  0  0  0  0
    0.3768   -5.6873    2.0933 Si  0  0  0  0  0  4  0  0  0  0  0  0
    1.6081   -7.3165    6.3499 Si  0  0  0  0  0  4  0  0  0  0  0  0
    0.5836   -7.8698    1.7273 Si  0  0  0  0  0  4  0  0  0  0  0  0
    0.7735   -4.2079    8.2178 H   0  0  0  0  0  0  0  0  0  0  0  0
    2.2606   -2.5924    7.3074 H   0  0  0  0  0  0  0  0  0  0  0  0
    3.8531   -5.2968    6.4504 H   0  0  0  0  0  0  0  0  0  0  0  0
    2.5228   -5.0041    4.5067 H   0  0  0  0  0  0  0  0  0  0  0  0
    2.0097   -8.1736    1.4647 H   0  0  0  0  0  0  0  0  0  0  0  0
   -0.1646   -8.3153    0.5519 H   0  0  0  0  0  0  0  0  0  0  0  0
   -0.3311   -7.6128    5.2869 Si  0  0  0  0  0  4  0  0  0  0  0  0
   -0.9552   -6.3490    4.9081 H   0  0  0  0  0  0  0  0  0  0  0  0
   -1.2582   -8.2864    6.2279 H   0  0  0  0  0  0  0  0  0  0  0  0
   -0.0496   -8.9790    3.5502 Si  0  0  0  0  0  4  0  0  0  0  0  0
   -1.3442   -9.6294    3.2422 H   0  0  0  0  0  0  0  0  0  0  0  0
    0.9703   -9.9829    3.9161 H   0  0  0  0  0  0  0  0  0  0  0  0
    2.5634   -8.3518    5.9416 H   0  0  0  0  0  0  0  0  0  0  0  0
    1.4094   -7.4251    7.8111 H   0  0  0  0  0  0  0  0  0  0  0  0
    0.2162   -5.3974    3.5351 H   0  0  0  0  0  0  0  0  0  0  0  0
    1.6150   -4.9887    1.6696 H   0  0  0  0  0  0  0  0  0  0  0  0
   -1.8898   -5.8817    0.1109 H   0  0  0  0  0  0  0  0  0  0  0  0
   -0.8602   -3.7268    0.0393 H   0  0  0  0  0  0  0  0  0  0  0  0
   -1.2121   -3.8643    5.2441 H   0  0  0  0  0  0  0  0  0  0  0  0
   -0.9501   -1.8105    6.3915 H   0  0  0  0  0  0  0  0  0  0  0  0
  1  2  1  0
  1  5  1  0
  2  3  1  0
  2  4  1  0
  2 11  1  0
  5  6  1  0
  5  7  1  0
  5  8  1  0
  8  9  1  0
  8 36  1  0
  8 37  1  0
  9 14  1  0
  9 18  1  0
  9 19  1  0
 10 11  1  0
 10 15  1  0
 10 34  1  0
 10 35  1  0
 11 12  1  0
 11 13  1  0
 14 16  1  0
 14 20  1  0
 14 21  1  0
 15 17  1  0
 15 32  1  0
 15 33  1  0
 16 24  1  0
 16 30  1  0
 16 31  1  0
 17 22  1  0
 17 23  1  0
 17 27  1  0
 24 25  1  0
 24 26  1  0
 24 27  1  0
 27 28  1  0
 27 29  1  0
M  CHG  1   1   1
M  RAD  1   1   2
M  END
$$$$

     RDKit          3D

 37 37  0  0  0  0  0  0  0  0999 V2000
   -0.5169   -1.1424    2.4464 S   0  0  0  0  0  2  0  0  0  0  0  0
    0.3575   -1.8789    4.2577 Si  0  0  0  0  0  4  0  0  0  0  0  0
   -0.5999   -2.5281    5.1274 H   0  0  0  0  0  0  0  0  0  0  0  0
    0.9057   -0.7091    4.9819 H   0  0  0  0  0  0  0  0  0  0  0  0
   -1.8643   -2.5750    1.5831 Si  0  0  0  0  0  4  0  0  0  0  0  0
   -1.3141   -3.1052    0.3270 H   0  0  0  0  0  0  0  0  0  0  0  0
   -3.1367   -1.8631    1.2768 H   0  0  0  0  0  0  0  0  0  0  0  0
   -2.2919   -4.1296    3.0813 Si  0  0  0  0  0  4  0  0  0  0  0  0
   -2.4538   -6.1668    2.1838 Si  0  0  0  0  0  4  0  0  0  0  0  0
    2.8056   -4.3029    5.5585 Si  0  0  0  0  0  4  0  0  0  0  0  0
    2.1048   -3.2034    3.7799 Si  0  0  0  0  0  4  0  0  0  0  0  0
    3.2004   -2.2875    3.3478 H   0  0  0  0  0  0  0  0  0  0  0  0
    1.8204   -4.0689    2.6402 H   0  0  0  0  0  0  0  0  0  0  0  0
   -0.4654   -7.0741    2.0395 Si  0  0  0  0  0  4  0  0  0  0  0  0
    1.7551   -6.2860    5.7771 Si  0  0  0  0  0  4  0  0  0  0  0  0
   -0.2112   -8.9555    3.1412 Si  0  0  0  0  0  4  0  0  0  0  0  0
   -0.2033   -5.9509    6.7231 Si  0  0  0  0  0  4  0  0  0  0  0  0
   -3.4324   -7.0028    2.9255 H   0  0  0  0  0  0  0  0  0  0  0  0
   -3.0543   -5.9798    0.8308 H   0  0  0  0  0  0  0  0  0  0  0  0
   -0.1417   -7.3236    0.6044 H   0  0  0  0  0  0  0  0  0  0  0  0
    0.5827   -6.1206    2.5033 H   0  0  0  0  0  0  0  0  0  0  0  0
   -0.6171   -4.5431    6.4469 H   0  0  0  0  0  0  0  0  0  0  0  0
   -0.0147   -5.9934    8.2030 H   0  0  0  0  0  0  0  0  0  0  0  0
   -1.1859   -9.1241    5.0604 Si  0  0  0  0  0  4  0  0  0  0  0  0
   -2.4154   -9.9659    4.9364 H   0  0  0  0  0  0  0  0  0  0  0  0
   -0.3246   -9.8890    6.0107 H   0  0  0  0  0  0  0  0  0  0  0  0
   -1.8084   -7.2724    6.0540 Si  0  0  0  0  0  4  0  0  0  0  0  0
   -2.8288   -6.5919    5.2116 H   0  0  0  0  0  0  0  0  0  0  0  0
   -2.5823   -7.6875    7.2661 H   0  0  0  0  0  0  0  0  0  0  0  0
   -0.6599  -10.0607    2.2412 H   0  0  0  0  0  0  0  0  0  0  0  0
    1.2556   -9.1935    3.2980 H   0  0  0  0  0  0  0  0  0  0  0  0
    1.7073   -6.9986    4.5220 H   0  0  0  0  0  0  0  0  0  0  0  0
    2.6110   -7.0854    6.7018 H   0  0  0  0  0  0  0  0  0  0  0  0
    2.5357   -3.5360    6.7824 H   0  0  0  0  0  0  0  0  0  0  0  0
    4.2350   -4.5696    5.4916 H   0  0  0  0  0  0  0  0  0  0  0  0
   -3.5488   -3.8762    3.8215 H   0  0  0  0  0  0  0  0  0  0  0  0
   -1.2119   -4.1626    4.0714 H   0  0  0  0  0  0  0  0  0  0  0  0
  1  2  1  0
  1  5  1  0
  2  3  1  0
  2  4  1  0
  2 11  1  0
  5  6  1  0
  5  7  1  0
  5  8  1  0
  8  9  1  0
  8 36  1  0
  8 37  1  0
  9 14  1  0
  9 18  1  0
  9 19  1  0
 10 11  1  0
 10 15  1  0
 10 34  1  0
 10 35  1  0
 11 12  1  0
 11 13  1  0
 14 16  1  0
 14 20  1  0
 14 21  1  0
 15 17  1  0
 15 32  1  0
 15 33  1  0
 16 24  1  0
 16 30  1  0
 16 31  1  0
 17 22  1  0
 17 23  1  0
 17 27  1  0
 24 25  1  0
 24 26  1  0
 24 27  1  0
 27 28  1  0
 27 29  1  0
M  CHG  1   1   1
M  RAD  1   1   2
M  END
$$$$
