
     RDKit          3D

 37 37  0  0  0  0  0  0  0  0999 V2000
    2.0736   -0.1357   -2.1851 S   0  0  0  0  0  2  0  0  0  0  0  0
    3.0350    1.3977   -3.3798 Si  0  0  0  0  0  4  0  0  0  0  0  0
    4.3110    0.8609   -3.8543 H   0  0  0  0  0  0  0  0  0  0  0  0
    3.2970    2.5378   -2.5113 H   0  0  0  0  0  0  0  0  0  0  0  0
    2.0519   -1.9129   -3.3743 Si  0  0  0  0  0  4  0  0  0  0  0  0
    1.4777   -3.0522   -2.6914 H   0  0  0  0  0  0  0  0  0  0  0  0
    1.2505   -1.6228   -4.5883 H   0  0  0  0  0  0  0  0  0  0  0  0
    4.1636   -2.3047   -4.0401 Si  0  0  0  0  0  4  0  0  0  0  0  0
    4.2337   -2.6897   -6.2434 Si  0  0  0  0  0  4  0  0  0  0  0  0
    2.7071    1.6309   -7.0467 Si  0  0  0  0  0  4  0  0  0  0  0  0
    1.6767    1.8789   -5.0666 Si  0  0  0  0  0  4  0  0  0  0  0  0
    1.2351    3.2766   -4.9074 H   0  0  0  0  0  0  0  0  0  0  0  0
    0.4794    1.0424   -5.0882 H   0  0  0  0  0  0  0  0  0  0  0  0
    2.1287   -2.9861   -6.9420 Si  0  0  0  0  0  4  0  0  0  0  0  0
    1.2423    1.6227   -8.7043 Si  0  0  0  0  0  4  0  0  0  0  0  0
    2.1612   -4.2933   -8.7296 Si  0  0  0  0  0  4  0  0  0  0  0  0
    1.2367   -0.2709   -9.8445 Si  0  0  0  0  0  4  0  0  0  0  0  0
    5.0366   -3.8906   -6.5506 H   0  0  0  0  0  0  0  0  0  0  0  0
    4.8673   -1.5670   -6.9544 H   0  0  0  0  0  0  0  0  0  0  0  0
    1.5547   -1.6761   -7.1930 H   0  0  0  0  0  0  0  0  0  0  0  0
    1.3885   -3.6599   -5.8470 H   0  0  0  0  0  0  0  0  0  0  0  0
    0.6544    0.0040  -11.1866 H   0  0  0  0  0  0  0  0  0  0  0  0
    0.3498   -1.2858   -9.2316 H   0  0  0  0  0  0  0  0  0  0  0  0
    3.2467   -3.3082  -10.3926 Si  0  0  0  0  0  4  0  0  0  0  0  0
    2.6596   -3.7209  -11.6683 H   0  0  0  0  0  0  0  0  0  0  0  0
    4.6445   -3.7814  -10.3786 H   0  0  0  0  0  0  0  0  0  0  0  0
    3.2771   -1.0842  -10.1657 Si  0  0  0  0  0  4  0  0  0  0  0  0
    4.2110   -0.7152   -9.1042 H   0  0  0  0  0  0  0  0  0  0  0  0
    3.8317   -0.5312  -11.4280 H   0  0  0  0  0  0  0  0  0  0  0  0
    2.8538   -5.5428   -8.3707 H   0  0  0  0  0  0  0  0  0  0  0  0
    0.8018   -4.6793   -9.1592 H   0  0  0  0  0  0  0  0  0  0  0  0
   -0.1116    1.8111   -8.1263 H   0  0  0  0  0  0  0  0  0  0  0  0
    1.4463    2.7683   -9.6293 H   0  0  0  0  0  0  0  0  0  0  0  0
    3.5857    0.4695   -7.0559 H   0  0  0  0  0  0  0  0  0  0  0  0
    3.5680    2.8365   -7.2137 H   0  0  0  0  0  0  0  0  0  0  0  0
    5.0262   -1.1509   -3.7669 H   0  0  0  0  0  0  0  0  0  0  0  0
    4.6062   -3.5201   -3.3510 H   0  0  0  0  0  0  0  0  0  0  0  0
  1  2  1  0
  1  5  1  0
  2  3  1  0
  2  4  1  0
  2 11  1  0
  5  6  1  0
  5  7  1  0
  5  8  1  0
  8  9  1  0
  8 36  1  0
  8 37  1  0
  9 14  1  0
  9 18  1  0
  9 19  1  0
 10 11  1  0
 10 15  1  0
 10 34  1  0
 10 35  1  0
 11 12  1  0
 11 13  1  0
 14 16  1  0
 14 20  1  0
 14 21  1  0
 15 17  1  0
 15 32  1  0
 15 33  1  0
 16 24  1  0
 16 30  1  0
 16 31  1  0
 17 22  1  0
 17 23  1  0
 17 27  1  0
 24 25  1  0
 24 26  1  0
 24 27  1  0
 27 28  1  0
 27 29  1  0
M  CHG  1   1   1
M  RAD  1   1   2
M  END
$$$$

     RDKit          3D

 37 37  0  0  0  0  0  0  0  0999 V2000
    2.0736   -0.1357   -2.1851 S   0  0  0  0  0  2  0  0  0  0  0  0
    3.2677    1.3459   -3.2252 Si  0  0  0  0  0  4  0  0  0  0  0  0
    4.4579    0.6744   -3.7485 H   0  0  0  0  0  0  0  0  0  0  0  0
    3.6814    2.3465   -2.2504 H   0  0  0  0  0  0  0  0  0  0  0  0
    1.8088   -1.7684   -3.5406 Si  0  0  0  0  0  4  0  0  0  0  0  0
    1.0632   -2.8703   -2.9715 H   0  0  0  0  0  0  0  0  0  0  0  0
    1.0770   -1.2484   -4.7215 H   0  0  0  0  0  0  0  0  0  0  0  0
    3.8496   -2.4024   -4.2397 Si  0  0  0  0  0  4  0  0  0  0  0  0
    3.8955   -2.5812   -6.4699 Si  0  0  0  0  0  4  0  0  0  0  0  0
    3.0326    1.9743   -6.8526 Si  0  0  0  0  0  4  0  0  0  0  0  0
    2.0203    2.1814   -4.8586 Si  0  0  0  0  0  4  0  0  0  0  0  0
    1.7866    3.6074   -4.5653 H   0  0  0  0  0  0  0  0  0  0  0  0
    0.7135    1.5369   -4.9618 H   0  0  0  0  0  0  0  0  0  0  0  0
    1.7804   -2.4953   -7.1953 Si  0  0  0  0  0  4  0  0  0  0  0  0
    1.6075    2.3410   -8.5042 Si  0  0  0  0  0  4  0  0  0  0  0  0
    1.6472   -3.6161   -9.1010 Si  0  0  0  0  0  4  0  0  0  0  0  0
    1.3408    0.5866   -9.8222 Si  0  0  0  0  0  4  0  0  0  0  0  0
    4.5176   -3.8526   -6.8912 H   0  0  0  0  0  0  0  0  0  0  0  0
    4.6977   -1.5017   -7.0685 H   0  0  0  0  0  0  0  0  0  0  0  0
    1.4090   -1.0970   -7.3188 H   0  0  0  0  0  0  0  0  0  0  0  0
    0.9330   -3.1538   -6.1711 H   0  0  0  0  0  0  0  0  0  0  0  0
    0.8253    1.0716  -11.1318 H   0  0  0  0  0  0  0  0  0  0  0  0
    0.3052   -0.3400   -9.3110 H   0  0  0  0  0  0  0  0  0  0  0  0
    2.8905   -2.6479  -10.6601 Si  0  0  0  0  0  4  0  0  0  0  0  0
    2.2682   -2.8455  -11.9701 H   0  0  0  0  0  0  0  0  0  0  0  0
    4.2032   -3.3215  -10.6910 H   0  0  0  0  0  0  0  0  0  0  0  0
    3.2440   -0.4846  -10.2191 Si  0  0  0  0  0  4  0  0  0  0  0  0
    4.2060   -0.3608   -9.1263 H   0  0  0  0  0  0  0  0  0  0  0  0
    3.8927    0.0984  -11.4217 H   0  0  0  0  0  0  0  0  0  0  0  0
    2.1432   -4.9827   -8.8641 H   0  0  0  0  0  0  0  0  0  0  0  0
    0.2524   -3.7542   -9.5668 H   0  0  0  0  0  0  0  0  0  0  0  0
    0.2875    2.6712   -7.9117 H   0  0  0  0  0  0  0  0  0  0  0  0
    1.9915    3.5270   -9.3140 H   0  0  0  0  0  0  0  0  0  0  0  0
    3.7310    0.7021   -6.9735 H   0  0  0  0  0  0  0  0  0  0  0  0
    4.0638    3.0499   -6.9017 H   0  0  0  0  0  0  0  0  0  0  0  0
    4.8683   -1.4202   -3.8556 H   0  0  0  0  0  0  0  0  0  0  0  0
    4.0985   -3.7300   -3.6710 H   0  0  0  0  0  0  0  0  0  0  0  0
  1  2  1  0
  1  5  1  0
  2  3  1  0
  2  4  1  0
  2 11  1  0
  5  6  1  0
  5  7  1  0
  5  8  1  0
  8  9  1  0
  8 36  1  0
  8 37  1  0
  9 14  1  0
  9 18  1  0
  9 19  1  0
 10 11  1  0
 10 15  1  0
 10 34  1  0
 10 35  1  0
 11 12  1  0
 11 13  1  0
 14 16  1  0
 14 20  1  0
 14 21  1  0
 15 17  1  0
 15 32  1  0
 15 33  1  0
 16 24  1  0
 16 30  1  0
 16 31  1  0
 17 22  1  0
 17 23  1  0
 17 27  1  0
 24 25  1  0
 24 26  1  0
 24 27  1  0
 27 28  1  0
 27 29  1  0
M  CHG  1   1   1
M  RAD  1   1   2
M  END
$$$$

     RDKit          3D

 37 37  0  0  0  0  0  0  0  0999 V2000
    2.0736   -0.1357   -2.1851 S   0  0  0  0  0  2  0  0  0  0  0  0
    3.3130    1.3296   -3.1947 Si  0  0  0  0  0  4  0  0  0  0  0  0
    4.4838    0.6333   -3.7294 H   0  0  0  0  0  0  0  0  0  0  0  0
    3.7544    2.2985   -2.2002 H   0  0  0  0  0  0  0  0  0  0  0  0
    1.7630   -1.7333   -3.5723 Si  0  0  0  0  0  4  0  0  0  0  0  0
    0.9840   -2.8234   -3.0257 H   0  0  0  0  0  0  0  0  0  0  0  0
    1.0492   -1.1691   -4.7438 H   0  0  0  0  0  0  0  0  0  0  0  0
    3.7855   -2.4140   -4.2810 Si  0  0  0  0  0  4  0  0  0  0  0  0
    3.8301   -2.5509   -6.5141 Si  0  0  0  0  0  4  0  0  0  0  0  0
    3.1035    2.0347   -6.8096 Si  0  0  0  0  0  4  0  0  0  0  0  0
    2.0941    2.2332   -4.8132 Si  0  0  0  0  0  4  0  0  0  0  0  0
    1.9021    3.6595   -4.4927 H   0  0  0  0  0  0  0  0  0  0  0  0
    0.7689    1.6299   -4.9306 H   0  0  0  0  0  0  0  0  0  0  0  0
    1.7199   -2.3883   -7.2405 Si  0  0  0  0  0  4  0  0  0  0  0  0
    1.6929    2.4754   -8.4556 Si  0  0  0  0  0  4  0  0  0  0  0  0
    1.5571   -3.4676   -9.1677 Si  0  0  0  0  0  4  0  0  0  0  0  0
    1.3767    0.7556   -9.8077 Si  0  0  0  0  0  4  0  0  0  0  0  0
    4.4151   -3.8319   -6.9591 H   0  0  0  0  0  0  0  0  0  0  0  0
    4.6651   -1.4843   -7.0907 H   0  0  0  0  0  0  0  0  0  0  0  0
    1.3904   -0.9774   -7.3373 H   0  0  0  0  0  0  0  0  0  0  0  0
    0.8514   -3.0410   -6.2303 H   0  0  0  0  0  0  0  0  0  0  0  0
    0.8783    1.2808  -11.1084 H   0  0  0  0  0  0  0  0  0  0  0  0
    0.3132   -0.1496   -9.3159 H   0  0  0  0  0  0  0  0  0  0  0  0
    2.8314   -2.5067  -10.7062 Si  0  0  0  0  0  4  0  0  0  0  0  0
    2.2061   -2.6604  -12.0205 H   0  0  0  0  0  0  0  0  0  0  0  0
    4.1237   -3.2182  -10.7484 H   0  0  0  0  0  0  0  0  0  0  0  0
    3.2481   -0.3639  -10.2229 Si  0  0  0  0  0  4  0  0  0  0  0  0
    4.2113   -0.2898   -9.1266 H   0  0  0  0  0  0  0  0  0  0  0  0
    3.9161    0.2228  -11.4131 H   0  0  0  0  0  0  0  0  0  0  0  0
    2.0119   -4.8526   -8.9567 H   0  0  0  0  0  0  0  0  0  0  0  0
    0.1597   -3.5552   -9.6379 H   0  0  0  0  0  0  0  0  0  0  0  0
    0.3822    2.8332   -7.8585 H   0  0  0  0  0  0  0  0  0  0  0  0
    2.1134    3.6649   -9.2418 H   0  0  0  0  0  0  0  0  0  0  0  0
    3.7640    0.7449   -6.9542 H   0  0  0  0  0  0  0  0  0  0  0  0
    4.1661    3.0800   -6.8365 H   0  0  0  0  0  0  0  0  0  0  0  0
    4.8321   -1.4700   -3.8766 H   0  0  0  0  0  0  0  0  0  0  0  0
    3.9938   -3.7591   -3.7378 H   0  0  0  0  0  0  0  0  0  0  0  0
  1  2  1  0
  1  5  1  0
  2  3  1  0
  2  4  1  0
  2 11  1  0
  5  6  1  0
  5  7  1  0
  5  8  1  0
  8  9  1  0
  8 36  1  0
  8 37  1  0
  9 14  1  0
  9 18  1  0
  9 19  1  0
 10 11  1  0
 10 15  1  0
 10 34  1  0
 10 35  1  0
 11 12  1  0
 11 13  1  0
 14 16  1  0
 14 20  1  0
 14 21  1  0
 15 17  1  0
 15 32  1  0
 15 33  1  0
 16 24  1  0
 16 30  1  0
 16 31  1  0
 17 22  1  0
 17 23  1  0
 17 27  1  0
 24 25  1  0
 24 26  1  0
 24 27  1  0
 27 28  1  0
 27 29  1  0
M  CHG  1   1   1
M  RAD  1   1   2
M  END
$$$$

     RDKit          3D

 37 37  0  0  0  0  0  0  0  0999 V2000
    2.0736   -0.1357   -2.1851 S   0  0  0  0  0  2  0  0  0  0  0  0
    2.3734    1.9372   -2.6311 Si  0  0  0  0  0  4  0  0  0  0  0  0
    1.5984    2.7117   -1.6285 H   0  0  0  0  0  0  0  0  0  0  0  0
    3.8004    2.3041   -2.5172 H   0  0  0  0  0  0  0  0  0  0  0  0
    2.1777   -1.2704   -4.0132 Si  0  0  0  0  0  4  0  0  0  0  0  0
    2.5663   -0.4258   -5.1502 H   0  0  0  0  0  0  0  0  0  0  0  0
    3.2399   -2.2956   -3.8022 H   0  0  0  0  0  0  0  0  0  0  0  0
    0.2796   -2.3153   -4.4392 Si  0  0  0  0  0  4  0  0  0  0  0  0
   -0.5799   -1.7786   -6.4097 Si  0  0  0  0  0  4  0  0  0  0  0  0
    3.2793    3.1564   -5.9198 Si  0  0  0  0  0  4  0  0  0  0  0  0
    1.6061    2.3330   -4.6811 Si  0  0  0  0  0  4  0  0  0  0  0  0
    0.5123    3.3123   -4.6146 H   0  0  0  0  0  0  0  0  0  0  0  0
    1.0716    1.1141   -5.3175 H   0  0  0  0  0  0  0  0  0  0  0  0
    0.8350   -1.9838   -8.0751 Si  0  0  0  0  0  4  0  0  0  0  0  0
    2.9188    2.8056   -8.0940 Si  0  0  0  0  0  4  0  0  0  0  0  0
    2.7385   -2.9409   -7.5343 Si  0  0  0  0  0  4  0  0  0  0  0  0
    4.5985    1.6900   -9.0203 Si  0  0  0  0  0  4  0  0  0  0  0  0
   -1.7550   -2.6376   -6.6405 H   0  0  0  0  0  0  0  0  0  0  0  0
   -1.1056   -0.3872   -6.3031 H   0  0  0  0  0  0  0  0  0  0  0  0
    1.0843   -0.6334   -8.6506 H   0  0  0  0  0  0  0  0  0  0  0  0
    0.2110   -2.7626   -9.1825 H   0  0  0  0  0  0  0  0  0  0  0  0
    5.6076    1.4232   -7.9677 H   0  0  0  0  0  0  0  0  0  0  0  0
    5.2768    2.4752  -10.0584 H   0  0  0  0  0  0  0  0  0  0  0  0
    4.5009   -1.9431   -8.4660 Si  0  0  0  0  0  4  0  0  0  0  0  0
    5.4010   -1.3719   -7.4252 H   0  0  0  0  0  0  0  0  0  0  0  0
    5.3447   -2.9209   -9.2071 H   0  0  0  0  0  0  0  0  0  0  0  0
    3.9148   -0.2964   -9.8215 Si  0  0  0  0  0  4  0  0  0  0  0  0
    2.4709   -0.2714  -10.1023 H   0  0  0  0  0  0  0  0  0  0  0  0
    4.5810   -0.4705  -11.1443 H   0  0  0  0  0  0  0  0  0  0  0  0
    2.7368   -4.3593   -7.9943 H   0  0  0  0  0  0  0  0  0  0  0  0
    2.9672   -2.9901   -6.0838 H   0  0  0  0  0  0  0  0  0  0  0  0
    2.7796    4.0903   -8.8166 H   0  0  0  0  0  0  0  0  0  0  0  0
    1.6758    2.0625   -8.2919 H   0  0  0  0  0  0  0  0  0  0  0  0
    3.3715    4.5969   -5.6110 H   0  0  0  0  0  0  0  0  0  0  0  0
    4.5349    2.5329   -5.4743 H   0  0  0  0  0  0  0  0  0  0  0  0
    0.3991   -3.7868   -4.3060 H   0  0  0  0  0  0  0  0  0  0  0  0
   -0.7067   -1.9072   -3.3993 H   0  0  0  0  0  0  0  0  0  0  0  0
  1  2  1  0
  1  5  1  0
  2  3  1  0
  2  4  1  0
  2 11  1  0
  5  6  1  0
  5  7  1  0
  5  8  1  0
  8  9  1  0
  8 36  1  0
  8 37  1  0
  9 14  1  0
  9 18  1  0
  9 19  1  0
 10 11  1  0
 10 15  1  0
 10 34  1  0
 10 35  1  0
 11 12  1  0
 11 13  1  0
 14 16  1  0
 14 20  1  0
 14 21  1  0
 15 17  1  0
 15 32  1  0
 15 33  1  0
 16 24  1  0
 16 30  1  0
 16 31  1  0
 17 22  1  0
 17 23  1  0
 17 27  1  0
 24 25  1  0
 24 26  1  0
 24 27  1  0
 27 28  1  0
 27 29  1  0
M  CHG  1   1   1
M  RAD  1   1   2
M  END
$$$$

     RDKit          3D

 37 37  0  0  0  0  0  0  0  0999 V2000
    2.0736   -0.1357   -2.1851 S   0  0  0  0  0  2  0  0  0  0  0  0
    2.4045    1.9367   -2.6108 Si  0  0  0  0  0  4  0  0  0  0  0  0
    1.6401    2.7129   -1.6013 H   0  0  0  0  0  0  0  0  0  0  0  0
    3.8366    2.2814   -2.4924 H   0  0  0  0  0  0  0  0  0  0  0  0
    2.1625   -1.2541   -4.0240 Si  0  0  0  0  0  4  0  0  0  0  0  0
    2.5645   -0.4044   -5.1525 H   0  0  0  0  0  0  0  0  0  0  0  0
    3.2092   -2.2969   -3.8221 H   0  0  0  0  0  0  0  0  0  0  0  0
    0.2495   -2.2666   -4.4614 Si  0  0  0  0  0  4  0  0  0  0  0  0
   -0.6003   -1.6982   -6.4273 Si  0  0  0  0  0  4  0  0  0  0  0  0
    3.3311    3.1741   -5.8869 Si  0  0  0  0  0  4  0  0  0  0  0  0
    1.6449    2.3637   -4.6574 Si  0  0  0  0  0  4  0  0  0  0  0  0
    0.5656    3.3583   -4.5823 H   0  0  0  0  0  0  0  0  0  0  0  0
    1.0929    1.1590   -5.3060 H   0  0  0  0  0  0  0  0  0  0  0  0
    0.8129   -1.9083   -8.0936 Si  0  0  0  0  0  4  0  0  0  0  0  0
    2.9673    2.8497   -8.0647 Si  0  0  0  0  0  4  0  0  0  0  0  0
    2.7015   -2.8986   -7.5607 Si  0  0  0  0  0  4  0  0  0  0  0  0
    4.6311    1.7183   -9.0006 Si  0  0  0  0  0  4  0  0  0  0  0  0
   -1.7878   -2.5375   -6.6672 H   0  0  0  0  0  0  0  0  0  0  0  0
   -1.1054   -0.3003   -6.3076 H   0  0  0  0  0  0  0  0  0  0  0  0
    1.0826   -0.5563   -8.6559 H   0  0  0  0  0  0  0  0  0  0  0  0
    0.1783   -2.6670   -9.2089 H   0  0  0  0  0  0  0  0  0  0  0  0
    5.6352    1.4264   -7.9498 H   0  0  0  0  0  0  0  0  0  0  0  0
    5.3219    2.5034  -10.0305 H   0  0  0  0  0  0  0  0  0  0  0  0
    4.4792   -1.9181   -8.4814 Si  0  0  0  0  0  4  0  0  0  0  0  0
    5.3868   -1.3704   -7.4345 H   0  0  0  0  0  0  0  0  0  0  0  0
    5.3091   -2.9012   -9.2314 H   0  0  0  0  0  0  0  0  0  0  0  0
    3.9187   -0.2499   -9.8214 Si  0  0  0  0  0  4  0  0  0  0  0  0
    2.4757   -0.2008  -10.1029 H   0  0  0  0  0  0  0  0  0  0  0  0
    4.5834   -0.4210  -11.1454 H   0  0  0  0  0  0  0  0  0  0  0  0
    2.6791   -4.3123   -8.0344 H   0  0  0  0  0  0  0  0  0  0  0  0
    2.9282   -2.9652   -6.1106 H   0  0  0  0  0  0  0  0  0  0  0  0
    2.8478    4.1432   -8.7749 H   0  0  0  0  0  0  0  0  0  0  0  0
    1.7136    2.1270   -8.2706 H   0  0  0  0  0  0  0  0  0  0  0  0
    3.4444    4.6100   -5.5641 H   0  0  0  0  0  0  0  0  0  0  0  0
    4.5770    2.5278   -5.4466 H   0  0  0  0  0  0  0  0  0  0  0  0
    0.3471   -3.7409   -4.3424 H   0  0  0  0  0  0  0  0  0  0  0  0
   -0.7316   -1.8540   -3.4184 H   0  0  0  0  0  0  0  0  0  0  0  0
  1  2  1  0
  1  5  1  0
  2  3  1  0
  2  4  1  0
  2 11  1  0
  5  6  1  0
  5  7  1  0
  5  8  1  0
  8  9  1  0
  8 36  1  0
  8 37  1  0
  9 14  1  0
  9 18  1  0
  9 19  1  0
 10 11  1  0
 10 15  1  0
 10 34  1  0
 10 35  1  0
 11 12  1  0
 11 13  1  0
 14 16  1  0
 14 20  1  0
 14 21  1  0
 15 17  1  0
 15 32  1  0
 15 33  1  0
 16 24  1  0
 16 30  1  0
 16 31  1  0
 17 22  1  0
 17 23  1  0
 17 27  1  0
 24 25  1  0
 24 26  1  0
 24 27  1  0
 27 28  1  0
 27 29  1  0
M  CHG  1   1   1
M  RAD  1   1   2
M  END
$$$$
