
     RDKit          3D

 37 37  0  0  0  0  0  0  0  0999 V2000
    1.5501   -1.7759   -2.8991 S   0  0  0  0  0  2  0  0  0  0  0  0
    2.4110   -3.7138   -2.5031 Si  0  0  0  0  0  4  0  0  0  0  0  0
    3.1533   -3.6979   -1.2422 H   0  0  0  0  0  0  0  0  0  0  0  0
    1.2662   -4.6660   -2.4462 H   0  0  0  0  0  0  0  0  0  0  0  0
    1.9659   -1.2956   -4.9505 Si  0  0  0  0  0  4  0  0  0  0  0  0
    1.3079   -2.3229   -5.7911 H   0  0  0  0  0  0  0  0  0  0  0  0
    3.4150   -1.4574   -5.1448 H   0  0  0  0  0  0  0  0  0  0  0  0
    1.2294    0.7063   -5.5111 Si  0  0  0  0  0  4  0  0  0  0  0  0
    0.6586    0.6722   -7.6787 Si  0  0  0  0  0  4  0  0  0  0  0  0
    5.7229   -3.4733   -4.1094 Si  0  0  0  0  0  4  0  0  0  0  0  0
    3.6980   -4.3749   -4.2102 Si  0  0  0  0  0  4  0  0  0  0  0  0
    3.7347   -5.8344   -4.2724 H   0  0  0  0  0  0  0  0  0  0  0  0
    3.0471   -3.8644   -5.4492 H   0  0  0  0  0  0  0  0  0  0  0  0
    2.2186   -0.2536   -8.9327 Si  0  0  0  0  0  4  0  0  0  0  0  0
    7.0549   -4.5340   -5.5657 Si  0  0  0  0  0  4  0  0  0  0  0  0
    4.2727    0.1951   -8.2353 Si  0  0  0  0  0  4  0  0  0  0  0  0
    6.4095   -4.0588   -7.6639 Si  0  0  0  0  0  4  0  0  0  0  0  0
    0.2865    2.0204   -8.1302 H   0  0  0  0  0  0  0  0  0  0  0  0
   -0.5699   -0.1642   -7.7769 H   0  0  0  0  0  0  0  0  0  0  0  0
    2.0846    0.2939  -10.3103 H   0  0  0  0  0  0  0  0  0  0  0  0
    2.0532   -1.7079   -9.0306 H   0  0  0  0  0  0  0  0  0  0  0  0
    6.9221   -5.1066   -8.5422 H   0  0  0  0  0  0  0  0  0  0  0  0
    4.9310   -4.0145   -7.6459 H   0  0  0  0  0  0  0  0  0  0  0  0
    5.7118   -0.9875   -9.5028 Si  0  0  0  0  0  4  0  0  0  0  0  0
    6.3416   -0.0979  -10.4696 H   0  0  0  0  0  0  0  0  0  0  0  0
    4.9847   -2.0322  -10.2594 H   0  0  0  0  0  0  0  0  0  0  0  0
    7.2073   -2.0397   -8.2177 Si  0  0  0  0  0  4  0  0  0  0  0  0
    7.5197   -1.2836   -7.0056 H   0  0  0  0  0  0  0  0  0  0  0  0
    8.4451   -2.2358   -8.9815 H   0  0  0  0  0  0  0  0  0  0  0  0
    4.5086   -0.1792   -6.8565 H   0  0  0  0  0  0  0  0  0  0  0  0
    4.5787    1.6392   -8.3622 H   0  0  0  0  0  0  0  0  0  0  0  0
    8.4371   -4.0583   -5.3460 H   0  0  0  0  0  0  0  0  0  0  0  0
    6.9799   -5.9734   -5.3096 H   0  0  0  0  0  0  0  0  0  0  0  0
    5.6619   -2.0657   -4.5264 H   0  0  0  0  0  0  0  0  0  0  0  0
    6.2836   -3.5825   -2.7658 H   0  0  0  0  0  0  0  0  0  0  0  0
    2.2632    1.7529   -5.3634 H   0  0  0  0  0  0  0  0  0  0  0  0
    0.0743    1.1285   -4.7257 H   0  0  0  0  0  0  0  0  0  0  0  0
  1  2  1  0
  1  5  1  0
  2  3  1  0
  2  4  1  0
  2 11  1  0
  5  6  1  0
  5  7  1  0
  5  8  1  0
  8  9  1  0
  8 36  1  0
  8 37  1  0
  9 14  1  0
  9 18  1  0
  9 19  1  0
 10 11  1  0
 10 15  1  0
 10 34  1  0
 10 35  1  0
 11 12  1  0
 11 13  1  0
 14 16  1  0
 14 20  1  0
 14 21  1  0
 15 17  1  0
 15 32  1  0
 15 33  1  0
 16 24  1  0
 16 30  1  0
 16 31  1  0
 17 22  1  0
 17 23  1  0
 17 27  1  0
 24 25  1  0
 24 26  1  0
 24 27  1  0
 27 28  1  0
 27 29  1  0
M  CHG  1   1   1
M  RAD  1   1   2
M  END
$$$$
