
     RDKit          3D

 37 37  0  0  0  0  0  0  0  0999 V2000
   -0.0124   -0.0628   -6.1886 S   0  0  0  0  0  2  0  0  0  0  0  0
    0.4067    1.9622   -6.5721 Si  0  0  0  0  0  4  0  0  0  0  0  0
    1.7816    2.1064   -7.0845 H   0  0  0  0  0  0  0  0  0  0  0  0
    0.3709    2.7088   -5.2844 H   0  0  0  0  0  0  0  0  0  0  0  0
   -1.7670   -0.7851   -7.1448 Si  0  0  0  0  0  4  0  0  0  0  0  0
   -2.9547   -0.0079   -6.8654 H   0  0  0  0  0  0  0  0  0  0  0  0
   -2.0064   -2.1669   -6.6474 H   0  0  0  0  0  0  0  0  0  0  0  0
   -1.3915   -0.9778   -9.3559 Si  0  0  0  0  0  4  0  0  0  0  0  0
    0.7223   -0.5472   -9.7797 Si  0  0  0  0  0  4  0  0  0  0  0  0
    0.0447    3.9906   -9.6283 Si  0  0  0  0  0  4  0  0  0  0  0  0
   -0.9797    2.9323   -7.9777 Si  0  0  0  0  0  4  0  0  0  0  0  0
   -1.9245    1.9008   -8.4874 H   0  0  0  0  0  0  0  0  0  0  0  0
   -1.8425    3.9258   -7.2747 H   0  0  0  0  0  0  0  0  0  0  0  0
    1.9462   -2.3561  -10.1153 Si  0  0  0  0  0  4  0  0  0  0  0  0
    2.1612    3.3978   -9.8604 Si  0  0  0  0  0  4  0  0  0  0  0  0
    2.7224   -2.3682  -12.2114 Si  0  0  0  0  0  4  0  0  0  0  0  0
    2.5508    3.0515  -12.0491 Si  0  0  0  0  0  4  0  0  0  0  0  0
    0.8409    0.3928  -10.9293 H   0  0  0  0  0  0  0  0  0  0  0  0
    1.3045    0.1884   -8.6222 H   0  0  0  0  0  0  0  0  0  0  0  0
    1.1787   -3.5786   -9.8162 H   0  0  0  0  0  0  0  0  0  0  0  0
    3.1295   -2.3936   -9.2087 H   0  0  0  0  0  0  0  0  0  0  0  0
    3.2585    4.2142  -12.5761 H   0  0  0  0  0  0  0  0  0  0  0  0
    1.2688    2.9599  -12.7909 H   0  0  0  0  0  0  0  0  0  0  0  0
    2.2796   -0.4131  -13.1990 Si  0  0  0  0  0  4  0  0  0  0  0  0
    0.9115    0.0340  -12.9452 H   0  0  0  0  0  0  0  0  0  0  0  0
    2.4537   -0.5908  -14.6346 H   0  0  0  0  0  0  0  0  0  0  0  0
    3.6580    1.1629  -12.3841 Si  0  0  0  0  0  4  0  0  0  0  0  0
    4.2983    0.7246  -11.1497 H   0  0  0  0  0  0  0  0  0  0  0  0
    4.6679    1.4175  -13.4489 H   0  0  0  0  0  0  0  0  0  0  0  0
    2.0844   -3.4670  -12.9436 H   0  0  0  0  0  0  0  0  0  0  0  0
    4.1913   -2.5420  -12.2405 H   0  0  0  0  0  0  0  0  0  0  0  0
    3.0616    4.4842   -9.3777 H   0  0  0  0  0  0  0  0  0  0  0  0
    2.5186    2.2014   -9.1096 H   0  0  0  0  0  0  0  0  0  0  0  0
   -0.7243    3.7336  -10.8768 H   0  0  0  0  0  0  0  0  0  0  0  0
   -0.0023    5.4601   -9.4199 H   0  0  0  0  0  0  0  0  0  0  0  0
   -2.2239    0.0696  -10.0097 H   0  0  0  0  0  0  0  0  0  0  0  0
   -1.8558   -2.2596   -9.8650 H   0  0  0  0  0  0  0  0  0  0  0  0
  1  2  1  0
  1  5  1  0
  2  3  1  0
  2  4  1  0
  2 11  1  0
  5  6  1  0
  5  7  1  0
  5  8  1  0
  8  9  1  0
  8 36  1  0
  8 37  1  0
  9 14  1  0
  9 18  1  0
  9 19  1  0
 10 11  1  0
 10 15  1  0
 10 34  1  0
 10 35  1  0
 11 12  1  0
 11 13  1  0
 14 16  1  0
 14 20  1  0
 14 21  1  0
 15 17  1  0
 15 32  1  0
 15 33  1  0
 16 24  1  0
 16 30  1  0
 16 31  1  0
 17 22  1  0
 17 23  1  0
 17 27  1  0
 24 25  1  0
 24 26  1  0
 24 27  1  0
 27 28  1  0
 27 29  1  0
M  CHG  1   1   1
M  RAD  1   1   2
M  END
$$$$

     RDKit          3D

 37 37  0  0  0  0  0  0  0  0999 V2000
   -0.0124   -0.0628   -6.1886 S   0  0  0  0  0  2  0  0  0  0  0  0
    2.0965   -0.3716   -6.5180 Si  0  0  0  0  0  4  0  0  0  0  0  0
    2.8826   -0.0401   -5.3334 H   0  0  0  0  0  0  0  0  0  0  0  0
    2.2776   -1.8011   -6.8630 H   0  0  0  0  0  0  0  0  0  0  0  0
   -0.5107    1.9536   -6.6712 Si  0  0  0  0  0  4  0  0  0  0  0  0
    0.7214    2.7666   -6.5028 H   0  0  0  0  0  0  0  0  0  0  0  0
   -1.4905    2.5083   -5.7087 H   0  0  0  0  0  0  0  0  0  0  0  0
   -1.1967    2.1814   -8.7662 Si  0  0  0  0  0  4  0  0  0  0  0  0
   -2.2505    0.3879   -9.5213 Si  0  0  0  0  0  4  0  0  0  0  0  0
    2.4068   -0.2397  -10.1110 Si  0  0  0  0  0  4  0  0  0  0  0  0
    2.8194    0.8936   -8.2261 Si  0  0  0  0  0  4  0  0  0  0  0  0
    4.2577    1.1733   -8.1096 H   0  0  0  0  0  0  0  0  0  0  0  0
    2.0284    2.1299   -8.2112 H   0  0  0  0  0  0  0  0  0  0  0  0
   -3.8865    1.0857  -10.9080 Si  0  0  0  0  0  4  0  0  0  0  0  0
    2.8502    0.9715  -11.9131 Si  0  0  0  0  0  4  0  0  0  0  0  0
   -2.9457    1.6033  -12.8866 Si  0  0  0  0  0  4  0  0  0  0  0  0
    1.0065    1.3987  -13.1046 Si  0  0  0  0  0  4  0  0  0  0  0  0
   -2.7891   -0.4419   -8.4482 H   0  0  0  0  0  0  0  0  0  0  0  0
   -1.3768   -0.4789  -10.3417 H   0  0  0  0  0  0  0  0  0  0  0  0
   -4.7693   -0.0801  -11.1152 H   0  0  0  0  0  0  0  0  0  0  0  0
   -4.5804    2.2288  -10.3435 H   0  0  0  0  0  0  0  0  0  0  0  0
   -0.0448    0.4174  -12.8537 H   0  0  0  0  0  0  0  0  0  0  0  0
    1.3452    1.2952  -14.5501 H   0  0  0  0  0  0  0  0  0  0  0  0
   -1.9590    3.5742  -12.8312 Si  0  0  0  0  0  4  0  0  0  0  0  0
   -2.4966    4.3330  -11.6808 H   0  0  0  0  0  0  0  0  0  0  0  0
   -2.3599    4.3333  -14.0492 H   0  0  0  0  0  0  0  0  0  0  0  0
    0.2451    3.4477  -12.7429 Si  0  0  0  0  0  4  0  0  0  0  0  0
    0.6799    3.9023  -11.4003 H   0  0  0  0  0  0  0  0  0  0  0  0
    0.8388    4.3974  -13.7153 H   0  0  0  0  0  0  0  0  0  0  0  0
   -4.0615    1.6097  -13.8749 H   0  0  0  0  0  0  0  0  0  0  0  0
   -2.0570    0.5128  -13.2773 H   0  0  0  0  0  0  0  0  0  0  0  0
    3.7770    0.1777  -12.7670 H   0  0  0  0  0  0  0  0  0  0  0  0
    3.5685    2.2050  -11.5625 H   0  0  0  0  0  0  0  0  0  0  0  0
    3.2025   -1.4947  -10.0807 H   0  0  0  0  0  0  0  0  0  0  0  0
    1.0073   -0.6205  -10.1048 H   0  0  0  0  0  0  0  0  0  0  0  0
   -2.1334    3.3376   -8.8058 H   0  0  0  0  0  0  0  0  0  0  0  0
   -0.0412    2.4471   -9.6112 H   0  0  0  0  0  0  0  0  0  0  0  0
  1  2  1  0
  1  5  1  0
  2  3  1  0
  2  4  1  0
  2 11  1  0
  5  6  1  0
  5  7  1  0
  5  8  1  0
  8  9  1  0
  8 36  1  0
  8 37  1  0
  9 14  1  0
  9 18  1  0
  9 19  1  0
 10 11  1  0
 10 15  1  0
 10 34  1  0
 10 35  1  0
 11 12  1  0
 11 13  1  0
 14 16  1  0
 14 20  1  0
 14 21  1  0
 15 17  1  0
 15 32  1  0
 15 33  1  0
 16 24  1  0
 16 30  1  0
 16 31  1  0
 17 22  1  0
 17 23  1  0
 17 27  1  0
 24 25  1  0
 24 26  1  0
 24 27  1  0
 27 28  1  0
 27 29  1  0
M  CHG  1   1   1
M  RAD  1   1   2
M  END
$$$$

     RDKit          3D

 37 37  0  0  0  0  0  0  0  0999 V2000
   -0.0124   -0.0628   -6.1886 S   0  0  0  0  0  2  0  0  0  0  0  0
    0.2806    1.9839   -6.5736 Si  0  0  0  0  0  4  0  0  0  0  0  0
    1.6438    2.2125   -7.0867 H   0  0  0  0  0  0  0  0  0  0  0  0
    0.1991    2.7279   -5.2864 H   0  0  0  0  0  0  0  0  0  0  0  0
   -1.7192   -0.8928   -7.1437 Si  0  0  0  0  0  4  0  0  0  0  0  0
   -2.9527   -0.1904   -6.8645 H   0  0  0  0  0  0  0  0  0  0  0  0
   -1.8727   -2.2865   -6.6453 H   0  0  0  0  0  0  0  0  0  0  0  0
   -1.3333   -1.0636   -9.3548 Si  0  0  0  0  0  4  0  0  0  0  0  0
    0.7498   -0.5035   -9.7796 Si  0  0  0  0  0  4  0  0  0  0  0  0
   -0.2071    3.9839   -9.6312 Si  0  0  0  0  0  4  0  0  0  0  0  0
   -1.1635    2.8654   -7.9795 Si  0  0  0  0  0  4  0  0  0  0  0  0
   -2.0429    1.7771   -8.4882 H   0  0  0  0  0  0  0  0  0  0  0  0
   -2.0859    3.8043   -7.2769 H   0  0  0  0  0  0  0  0  0  0  0  0
    2.0830   -2.2334  -10.1143 Si  0  0  0  0  0  4  0  0  0  0  0  0
    1.9420    3.5229   -9.8635 Si  0  0  0  0  0  4  0  0  0  0  0  0
    2.8579   -2.1991  -12.2107 Si  0  0  0  0  0  4  0  0  0  0  0  0
    2.3517    3.1998  -12.0522 Si  0  0  0  0  0  4  0  0  0  0  0  0
    0.8097    0.4412  -10.9299 H   0  0  0  0  0  0  0  0  0  0  0  0
    1.2857    0.2676   -8.6228 H   0  0  0  0  0  0  0  0  0  0  0  0
    1.3928   -3.5009   -9.8142 H   0  0  0  0  0  0  0  0  0  0  0  0
    3.2667   -2.1971   -9.2081 H   0  0  0  0  0  0  0  0  0  0  0  0
    2.9860    4.4036  -12.5802 H   0  0  0  0  0  0  0  0  0  0  0  0
    1.0775    3.0286  -12.7934 H   0  0  0  0  0  0  0  0  0  0  0  0
    2.2948   -0.2758  -13.1995 Si  0  0  0  0  0  4  0  0  0  0  0  0
    0.9017    0.0861  -12.9456 H   0  0  0  0  0  0  0  0  0  0  0  0
    2.4792   -0.4434  -14.6351 H   0  0  0  0  0  0  0  0  0  0  0  0
    3.5734    1.3830  -12.3862 Si  0  0  0  0  0  4  0  0  0  0  0  0
    4.2399    0.9860  -11.1517 H   0  0  0  0  0  0  0  0  0  0  0  0
    4.5653    1.6988  -13.4516 H   0  0  0  0  0  0  0  0  0  0  0  0
    2.2888   -3.3357  -12.9420 H   0  0  0  0  0  0  0  0  0  0  0  0
    4.3347   -2.2817  -12.2402 H   0  0  0  0  0  0  0  0  0  0  0  0
    2.7736    4.6633   -9.3819 H   0  0  0  0  0  0  0  0  0  0  0  0
    2.3729    2.3514   -9.1121 H   0  0  0  0  0  0  0  0  0  0  0  0
   -0.9590    3.6790  -10.8792 H   0  0  0  0  0  0  0  0  0  0  0  0
   -0.3448    5.4478   -9.4238 H   0  0  0  0  0  0  0  0  0  0  0  0
   -2.2290   -0.0701  -10.0090 H   0  0  0  0  0  0  0  0  0  0  0  0
   -1.7175   -2.3720   -9.8628 H   0  0  0  0  0  0  0  0  0  0  0  0
  1  2  1  0
  1  5  1  0
  2  3  1  0
  2  4  1  0
  2 11  1  0
  5  6  1  0
  5  7  1  0
  5  8  1  0
  8  9  1  0
  8 36  1  0
  8 37  1  0
  9 14  1  0
  9 18  1  0
  9 19  1  0
 10 11  1  0
 10 15  1  0
 10 34  1  0
 10 35  1  0
 11 12  1  0
 11 13  1  0
 14 16  1  0
 14 20  1  0
 14 21  1  0
 15 17  1  0
 15 32  1  0
 15 33  1  0
 16 24  1  0
 16 30  1  0
 16 31  1  0
 17 22  1  0
 17 23  1  0
 17 27  1  0
 24 25  1  0
 24 26  1  0
 24 27  1  0
 27 28  1  0
 27 29  1  0
M  CHG  1   1   1
M  RAD  1   1   2
M  END
$$$$

     RDKit          3D

 37 37  0  0  0  0  0  0  0  0999 V2000
   -0.0124   -0.0628   -6.1886 S   0  0  0  0  0  2  0  0  0  0  0  0
    2.0459   -0.6166   -6.3150 Si  0  0  0  0  0  4  0  0  0  0  0  0
    2.5543   -0.7646   -4.9366 H   0  0  0  0  0  0  0  0  0  0  0  0
    2.8141    0.4227   -7.0159 H   0  0  0  0  0  0  0  0  0  0  0  0
   -0.8383    0.3209   -8.1277 Si  0  0  0  0  0  4  0  0  0  0  0  0
   -0.6497   -0.8309   -9.0273 H   0  0  0  0  0  0  0  0  0  0  0  0
   -2.2832    0.5064   -7.9677 H   0  0  0  0  0  0  0  0  0  0  0  0
    0.1396    2.1579   -8.9646 Si  0  0  0  0  0  4  0  0  0  0  0  0
    0.7475    1.8144  -11.0736 Si  0  0  0  0  0  4  0  0  0  0  0  0
    4.1757   -2.8330   -8.3449 Si  0  0  0  0  0  4  0  0  0  0  0  0
    2.2301   -2.5750   -7.3296 Si  0  0  0  0  0  4  0  0  0  0  0  0
    1.0860   -2.7126   -8.2657 H   0  0  0  0  0  0  0  0  0  0  0  0
    2.0873   -3.6578   -6.3277 H   0  0  0  0  0  0  0  0  0  0  0  0
    2.9598    1.4047  -11.2188 Si  0  0  0  0  0  4  0  0  0  0  0  0
    5.2795   -0.8732   -8.5162 Si  0  0  0  0  0  4  0  0  0  0  0  0
    3.9993    2.7838   -9.8448 Si  0  0  0  0  0  4  0  0  0  0  0  0
    6.4552   -0.9362  -10.3726 Si  0  0  0  0  0  4  0  0  0  0  0  0
   -0.0345    0.7179  -11.6115 H   0  0  0  0  0  0  0  0  0  0  0  0
    0.5189    3.0816  -11.8124 H   0  0  0  0  0  0  0  0  0  0  0  0
    3.2069    0.0041  -10.9382 H   0  0  0  0  0  0  0  0  0  0  0  0
    3.3524    1.6956  -12.5923 H   0  0  0  0  0  0  0  0  0  0  0  0
    7.6950   -1.7224  -10.1124 H   0  0  0  0  0  0  0  0  0  0  0  0
    5.6994   -1.7399  -11.3755 H   0  0  0  0  0  0  0  0  0  0  0  0
    6.1933    2.7323  -10.0369 Si  0  0  0  0  0  4  0  0  0  0  0  0
    6.8886    2.7791   -8.7291 H   0  0  0  0  0  0  0  0  0  0  0  0
    6.6226    3.9699  -10.7515 H   0  0  0  0  0  0  0  0  0  0  0  0
    6.9213    1.0153  -11.2383 Si  0  0  0  0  0  4  0  0  0  0  0  0
    6.3847    1.1599  -12.6216 H   0  0  0  0  0  0  0  0  0  0  0  0
    8.3876    1.1552  -11.3697 H   0  0  0  0  0  0  0  0  0  0  0  0
    3.4788    4.1575  -10.1014 H   0  0  0  0  0  0  0  0  0  0  0  0
    3.6473    2.4924   -8.4349 H   0  0  0  0  0  0  0  0  0  0  0  0
    6.1693   -0.7815   -7.3261 H   0  0  0  0  0  0  0  0  0  0  0  0
    4.2911    0.1799   -8.4587 H   0  0  0  0  0  0  0  0  0  0  0  0
    5.0333   -3.8008   -7.6760 H   0  0  0  0  0  0  0  0  0  0  0  0
    3.9087   -3.3169   -9.7246 H   0  0  0  0  0  0  0  0  0  0  0  0
    1.2712    2.5870   -8.1205 H   0  0  0  0  0  0  0  0  0  0  0  0
   -0.8688    3.2510   -8.8674 H   0  0  0  0  0  0  0  0  0  0  0  0
  1  2  1  0
  1  5  1  0
  2  3  1  0
  2  4  1  0
  2 11  1  0
  5  6  1  0
  5  7  1  0
  5  8  1  0
  8  9  1  0
  8 36  1  0
  8 37  1  0
  9 14  1  0
  9 18  1  0
  9 19  1  0
 10 11  1  0
 10 15  1  0
 10 34  1  0
 10 35  1  0
 11 12  1  0
 11 13  1  0
 14 16  1  0
 14 20  1  0
 14 21  1  0
 15 17  1  0
 15 32  1  0
 15 33  1  0
 16 24  1  0
 16 30  1  0
 16 31  1  0
 17 22  1  0
 17 23  1  0
 17 27  1  0
 24 25  1  0
 24 26  1  0
 24 27  1  0
 27 28  1  0
 27 29  1  0
M  CHG  1   1   1
M  RAD  1   1   2
M  END
$$$$

     RDKit          3D

 37 37  0  0  0  0  0  0  0  0999 V2000
   -0.0124   -0.0628   -6.1886 S   0  0  0  0  0  2  0  0  0  0  0  0
    0.3349    1.9755   -6.5729 Si  0  0  0  0  0  4  0  0  0  0  0  0
    1.7038    2.1680   -7.0857 H   0  0  0  0  0  0  0  0  0  0  0  0
    0.2731    2.7210   -5.2855 H   0  0  0  0  0  0  0  0  0  0  0  0
   -1.7406   -0.8469   -7.1442 Si  0  0  0  0  0  4  0  0  0  0  0  0
   -2.9550   -0.1120   -6.8649 H   0  0  0  0  0  0  0  0  0  0  0  0
   -1.9310   -2.2362   -6.6462 H   0  0  0  0  0  0  0  0  0  0  0  0
   -1.3590   -1.0272   -9.3553 Si  0  0  0  0  0  4  0  0  0  0  0  0
    0.7383   -0.5225   -9.7797 Si  0  0  0  0  0  4  0  0  0  0  0  0
   -0.0989    3.9887   -9.6300 Si  0  0  0  0  0  4  0  0  0  0  0  0
   -1.0850    2.8955   -7.9787 Si  0  0  0  0  0  4  0  0  0  0  0  0
   -1.9929    1.8312   -8.4879 H   0  0  0  0  0  0  0  0  0  0  0  0
   -1.9822    3.8583   -7.2760 H   0  0  0  0  0  0  0  0  0  0  0  0
    2.0252   -2.2872  -10.1147 Si  0  0  0  0  0  4  0  0  0  0  0  0
    2.0372    3.4708   -9.8622 Si  0  0  0  0  0  4  0  0  0  0  0  0
    2.8010   -2.2728  -12.2110 Si  0  0  0  0  0  4  0  0  0  0  0  0
    2.4384    3.1376  -12.0508 Si  0  0  0  0  0  4  0  0  0  0  0  0
    0.8235    0.4206  -10.9297 H   0  0  0  0  0  0  0  0  0  0  0  0
    1.2944    0.2337   -8.6225 H   0  0  0  0  0  0  0  0  0  0  0  0
    1.3014   -3.5359   -9.8150 H   0  0  0  0  0  0  0  0  0  0  0  0
    3.2092   -2.2826   -9.2083 H   0  0  0  0  0  0  0  0  0  0  0  0
    3.1045    4.3243  -12.5784 H   0  0  0  0  0  0  0  0  0  0  0  0
    1.1603    3.0005  -12.7923 H   0  0  0  0  0  0  0  0  0  0  0  0
    2.2893   -0.3350  -13.1993 Si  0  0  0  0  0  4  0  0  0  0  0  0
    0.9063    0.0638  -12.9454 H   0  0  0  0  0  0  0  0  0  0  0  0
    2.4694   -0.5069  -14.6349 H   0  0  0  0  0  0  0  0  0  0  0  0
    3.6114    1.2890  -12.3853 Si  0  0  0  0  0  4  0  0  0  0  0  0
    4.2670    0.8742  -11.1508 H   0  0  0  0  0  0  0  0  0  0  0  0
    4.6115    1.5787  -13.4504 H   0  0  0  0  0  0  0  0  0  0  0  0
    2.2020   -3.3937  -12.9427 H   0  0  0  0  0  0  0  0  0  0  0  0
    4.2751   -2.3946  -12.2403 H   0  0  0  0  0  0  0  0  0  0  0  0
    2.8987    4.5885   -9.3801 H   0  0  0  0  0  0  0  0  0  0  0  0
    2.4367    2.2880   -9.1110 H   0  0  0  0  0  0  0  0  0  0  0  0
   -0.8586    3.7042  -10.8782 H   0  0  0  0  0  0  0  0  0  0  0  0
   -0.1977    5.4557   -9.4221 H   0  0  0  0  0  0  0  0  0  0  0  0
   -2.2278   -0.0100  -10.0093 H   0  0  0  0  0  0  0  0  0  0  0  0
   -1.7778   -2.3247   -9.8638 H   0  0  0  0  0  0  0  0  0  0  0  0
  1  2  1  0
  1  5  1  0
  2  3  1  0
  2  4  1  0
  2 11  1  0
  5  6  1  0
  5  7  1  0
  5  8  1  0
  8  9  1  0
  8 36  1  0
  8 37  1  0
  9 14  1  0
  9 18  1  0
  9 19  1  0
 10 11  1  0
 10 15  1  0
 10 34  1  0
 10 35  1  0
 11 12  1  0
 11 13  1  0
 14 16  1  0
 14 20  1  0
 14 21  1  0
 15 17  1  0
 15 32  1  0
 15 33  1  0
 16 24  1  0
 16 30  1  0
 16 31  1  0
 17 22  1  0
 17 23  1  0
 17 27  1  0
 24 25  1  0
 24 26  1  0
 24 27  1  0
 27 28  1  0
 27 29  1  0
M  CHG  1   1   1
M  RAD  1   1   2
M  END
$$$$

     RDKit          3D

 37 37  0  0  0  0  0  0  0  0999 V2000
   -0.0124   -0.0628   -6.1886 S   0  0  0  0  0  2  0  0  0  0  0  0
    2.0305   -0.6711   -6.3149 Si  0  0  0  0  0  4  0  0  0  0  0  0
    2.5346   -0.8330   -4.9364 H   0  0  0  0  0  0  0  0  0  0  0  0
    2.8261    0.3476   -7.0153 H   0  0  0  0  0  0  0  0  0  0  0  0
   -0.8275    0.3433   -8.1277 Si  0  0  0  0  0  4  0  0  0  0  0  0
   -0.6695   -0.8128   -9.0276 H   0  0  0  0  0  0  0  0  0  0  0  0
   -2.2670    0.5671   -7.9678 H   0  0  0  0  0  0  0  0  0  0  0  0
    0.1989    2.1539   -8.9639 Si  0  0  0  0  0  4  0  0  0  0  0  0
    0.7979    1.7951  -11.0729 Si  0  0  0  0  0  4  0  0  0  0  0  0
    4.1009   -2.9427   -8.3452 Si  0  0  0  0  0  4  0  0  0  0  0  0
    2.1627   -2.6334   -7.3301 Si  0  0  0  0  0  4  0  0  0  0  0  0
    1.0155   -2.7402   -8.2663 H   0  0  0  0  0  0  0  0  0  0  0  0
    1.9910   -3.7123   -6.3285 H   0  0  0  0  0  0  0  0  0  0  0  0
    2.9984    1.3267  -11.2180 Si  0  0  0  0  0  4  0  0  0  0  0  0
    5.2564   -1.0128   -8.5158 Si  0  0  0  0  0  4  0  0  0  0  0  0
    4.0741    2.6773   -9.8434 Si  0  0  0  0  0  4  0  0  0  0  0  0
    6.4303   -1.1065  -10.3720 Si  0  0  0  0  0  4  0  0  0  0  0  0
   -0.0130    0.7199  -11.6113 H   0  0  0  0  0  0  0  0  0  0  0  0
    0.6031    3.0681  -11.8113 H   0  0  0  0  0  0  0  0  0  0  0  0
    3.2082   -0.0800  -10.9378 H   0  0  0  0  0  0  0  0  0  0  0  0
    3.3989    1.6075  -12.5913 H   0  0  0  0  0  0  0  0  0  0  0  0
    7.6487   -1.9255  -10.1118 H   0  0  0  0  0  0  0  0  0  0  0  0
    5.6536   -1.8896  -11.3752 H   0  0  0  0  0  0  0  0  0  0  0  0
    6.2660    2.5676  -10.0352 Si  0  0  0  0  0  4  0  0  0  0  0  0
    6.9621    2.5955   -8.7273 H   0  0  0  0  0  0  0  0  0  0  0  0
    6.7280    3.7935  -10.7493 H   0  0  0  0  0  0  0  0  0  0  0  0
    6.9482    0.8322  -11.2370 Si  0  0  0  0  0  4  0  0  0  0  0  0
    6.4158    0.9914  -12.6204 H   0  0  0  0  0  0  0  0  0  0  0  0
    8.4178    0.9331  -11.3682 H   0  0  0  0  0  0  0  0  0  0  0  0
    3.5903    4.0644  -10.0996 H   0  0  0  0  0  0  0  0  0  0  0  0
    3.7143    2.3949   -8.4336 H   0  0  0  0  0  0  0  0  0  0  0  0
    6.1482   -0.9453   -7.3255 H   0  0  0  0  0  0  0  0  0  0  0  0
    4.2963    0.0661   -8.4581 H   0  0  0  0  0  0  0  0  0  0  0  0
    4.9324   -3.9332   -7.6765 H   0  0  0  0  0  0  0  0  0  0  0  0
    3.8214   -3.4189   -9.7251 H   0  0  0  0  0  0  0  0  0  0  0  0
    1.3415    2.5526   -8.1195 H   0  0  0  0  0  0  0  0  0  0  0  0
   -0.7801    3.2734   -8.8665 H   0  0  0  0  0  0  0  0  0  0  0  0
  1  2  1  0
  1  5  1  0
  2  3  1  0
  2  4  1  0
  2 11  1  0
  5  6  1  0
  5  7  1  0
  5  8  1  0
  8  9  1  0
  8 36  1  0
  8 37  1  0
  9 14  1  0
  9 18  1  0
  9 19  1  0
 10 11  1  0
 10 15  1  0
 10 34  1  0
 10 35  1  0
 11 12  1  0
 11 13  1  0
 14 16  1  0
 14 20  1  0
 14 21  1  0
 15 17  1  0
 15 32  1  0
 15 33  1  0
 16 24  1  0
 16 30  1  0
 16 31  1  0
 17 22  1  0
 17 23  1  0
 17 27  1  0
 24 25  1  0
 24 26  1  0
 24 27  1  0
 27 28  1  0
 27 29  1  0
M  CHG  1   1   1
M  RAD  1   1   2
M  END
$$$$
