
     RDKit          3D

 37 37  0  0  0  0  0  0  0  0999 V2000
   -0.0148   -0.1679   -3.2340 S   0  0  0  0  0  2  0  0  0  0  0  0
    0.3851    1.9185   -3.6424 Si  0  0  0  0  0  4  0  0  0  0  0  0
   -0.7454    2.7461   -3.2101 H   0  0  0  0  0  0  0  0  0  0  0  0
    1.5743    2.3130   -2.8492 H   0  0  0  0  0  0  0  0  0  0  0  0
   -2.0109   -0.6793   -3.8574 Si  0  0  0  0  0  4  0  0  0  0  0  0
   -3.0122    0.1943   -3.2232 H   0  0  0  0  0  0  0  0  0  0  0  0
   -2.2736   -2.0459   -3.3452 H   0  0  0  0  0  0  0  0  0  0  0  0
   -2.2253   -0.5727   -6.0684 Si  0  0  0  0  0  4  0  0  0  0  0  0
   -3.9112    0.7703   -6.6357 Si  0  0  0  0  0  4  0  0  0  0  0  0
    1.9444    4.0230   -6.2395 Si  0  0  0  0  0  4  0  0  0  0  0  0
    0.8531    2.1158   -5.7866 Si  0  0  0  0  0  4  0  0  0  0  0  0
    1.6994    0.9529   -6.1811 H   0  0  0  0  0  0  0  0  0  0  0  0
   -0.3237    2.0881   -6.6342 H   0  0  0  0  0  0  0  0  0  0  0  0
   -3.4931    2.8876   -6.1777 Si  0  0  0  0  0  4  0  0  0  0  0  0
    3.1839    3.6007   -8.0795 Si  0  0  0  0  0  4  0  0  0  0  0  0
   -3.0272    4.0586   -8.0427 Si  0  0  0  0  0  4  0  0  0  0  0  0
    1.8302    2.5101   -9.5153 Si  0  0  0  0  0  4  0  0  0  0  0  0
   -5.0905    0.3467   -5.8400 H   0  0  0  0  0  0  0  0  0  0  0  0
   -4.1589    0.6395   -8.0779 H   0  0  0  0  0  0  0  0  0  0  0  0
   -4.6242    3.5703   -5.5206 H   0  0  0  0  0  0  0  0  0  0  0  0
   -2.3229    3.0556   -5.2810 H   0  0  0  0  0  0  0  0  0  0  0  0
    1.3412    1.3092   -8.8419 H   0  0  0  0  0  0  0  0  0  0  0  0
    2.5685    2.1296  -10.7327 H   0  0  0  0  0  0  0  0  0  0  0  0
   -1.8366    2.8300   -9.4719 Si  0  0  0  0  0  4  0  0  0  0  0  0
   -2.5626    2.5851  -10.7254 H   0  0  0  0  0  0  0  0  0  0  0  0
   -1.5811    1.5100   -8.8465 H   0  0  0  0  0  0  0  0  0  0  0  0
    0.0992    3.8416   -9.9832 Si  0  0  0  0  0  4  0  0  0  0  0  0
    0.1352    4.2025  -11.4126 H   0  0  0  0  0  0  0  0  0  0  0  0
    0.1634    5.0915   -9.2053 H   0  0  0  0  0  0  0  0  0  0  0  0
   -4.2826    4.4370   -8.6869 H   0  0  0  0  0  0  0  0  0  0  0  0
   -2.2518    5.2739   -7.7009 H   0  0  0  0  0  0  0  0  0  0  0  0
    4.2199    2.6529   -7.6711 H   0  0  0  0  0  0  0  0  0  0  0  0
    3.6994    4.8226   -8.6628 H   0  0  0  0  0  0  0  0  0  0  0  0
    2.7725    4.4564   -5.1315 H   0  0  0  0  0  0  0  0  0  0  0  0
    0.9683    5.0674   -6.6469 H   0  0  0  0  0  0  0  0  0  0  0  0
   -0.9794   -0.2185   -6.7324 H   0  0  0  0  0  0  0  0  0  0  0  0
   -2.5870   -1.9385   -6.5441 H   0  0  0  0  0  0  0  0  0  0  0  0
  1  2  1  0
  1  5  1  0
  2  3  1  0
  2  4  1  0
  2 11  1  0
  5  6  1  0
  5  7  1  0
  5  8  1  0
  8  9  1  0
  8 36  1  0
  8 37  1  0
  9 14  1  0
  9 18  1  0
  9 19  1  0
 10 11  1  0
 10 15  1  0
 10 34  1  0
 10 35  1  0
 11 12  1  0
 11 13  1  0
 14 16  1  0
 14 20  1  0
 14 21  1  0
 15 17  1  0
 15 32  1  0
 15 33  1  0
 16 24  1  0
 16 30  1  0
 16 31  1  0
 17 22  1  0
 17 23  1  0
 17 27  1  0
 24 25  1  0
 24 26  1  0
 24 27  1  0
 27 28  1  0
 27 29  1  0
M  CHG  1   1   1
M  RAD  1   1   2
M  END
$$$$

     RDKit          3D

 37 37  0  0  0  0  0  0  0  0999 V2000
   -0.0148   -0.1679   -3.2340 S   0  0  0  0  0  2  0  0  0  0  0  0
    1.8888   -0.2992   -4.1720 Si  0  0  0  0  0  4  0  0  0  0  0  0
    2.1986   -1.7301   -4.3786 H   0  0  0  0  0  0  0  0  0  0  0  0
    2.8838    0.3168   -3.2983 H   0  0  0  0  0  0  0  0  0  0  0  0
   -1.5891   -0.9010   -4.4758 Si  0  0  0  0  0  4  0  0  0  0  0  0
   -2.2772   -1.9819   -3.7162 H   0  0  0  0  0  0  0  0  0  0  0  0
   -1.0914   -1.5024   -5.7059 H   0  0  0  0  0  0  0  0  0  0  0  0
   -3.0529    0.7156   -4.8233 Si  0  0  0  0  0  4  0  0  0  0  0  0
   -4.0645    0.5843   -6.7722 Si  0  0  0  0  0  4  0  0  0  0  0  0
    1.4091    2.8492   -5.9496 Si  0  0  0  0  0  4  0  0  0  0  0  0
    1.8803    0.7074   -6.1871 Si  0  0  0  0  0  4  0  0  0  0  0  0
    0.9389   -0.0181   -7.0219 H   0  0  0  0  0  0  0  0  0  0  0  0
    3.2204    0.5502   -6.7492 H   0  0  0  0  0  0  0  0  0  0  0  0
   -2.9695   -0.6269   -8.2581 Si  0  0  0  0  0  4  0  0  0  0  0  0
    0.6635    3.7688   -7.8470 Si  0  0  0  0  0  4  0  0  0  0  0  0
   -1.4210    0.6811   -9.2443 Si  0  0  0  0  0  4  0  0  0  0  0  0
   -1.4526    4.3103   -7.5783 Si  0  0  0  0  0  4  0  0  0  0  0  0
   -5.4433    0.0528   -6.6641 H   0  0  0  0  0  0  0  0  0  0  0  0
   -4.2029    1.9615   -7.3188 H   0  0  0  0  0  0  0  0  0  0  0  0
   -3.9052   -1.0375   -9.3174 H   0  0  0  0  0  0  0  0  0  0  0  0
   -2.2666   -1.7704   -7.6639 H   0  0  0  0  0  0  0  0  0  0  0  0
   -2.0756    3.4769   -6.5314 H   0  0  0  0  0  0  0  0  0  0  0  0
   -1.5328    5.7061   -7.0916 H   0  0  0  0  0  0  0  0  0  0  0  0
   -2.3790    2.2472  -10.4922 Si  0  0  0  0  0  4  0  0  0  0  0  0
   -3.6842    1.6988  -10.9606 H   0  0  0  0  0  0  0  0  0  0  0  0
   -1.5952    2.4975  -11.7213 H   0  0  0  0  0  0  0  0  0  0  0  0
   -2.6598    4.1514   -9.4184 Si  0  0  0  0  0  4  0  0  0  0  0  0
   -4.0930    4.2496   -9.0237 H   0  0  0  0  0  0  0  0  0  0  0  0
   -2.4135    5.3344  -10.2878 H   0  0  0  0  0  0  0  0  0  0  0  0
   -0.5560   -0.1299  -10.1297 H   0  0  0  0  0  0  0  0  0  0  0  0
   -0.6793    1.3282   -8.1750 H   0  0  0  0  0  0  0  0  0  0  0  0
    1.4529    5.0149   -8.0653 H   0  0  0  0  0  0  0  0  0  0  0  0
    0.9161    2.9164   -9.0065 H   0  0  0  0  0  0  0  0  0  0  0  0
    2.6142    3.5449   -5.4518 H   0  0  0  0  0  0  0  0  0  0  0  0
    0.3982    2.9772   -4.8647 H   0  0  0  0  0  0  0  0  0  0  0  0
   -2.3564    2.0190   -4.6454 H   0  0  0  0  0  0  0  0  0  0  0  0
   -4.0911    0.6855   -3.7553 H   0  0  0  0  0  0  0  0  0  0  0  0
  1  2  1  0
  1  5  1  0
  2  3  1  0
  2  4  1  0
  2 11  1  0
  5  6  1  0
  5  7  1  0
  5  8  1  0
  8  9  1  0
  8 36  1  0
  8 37  1  0
  9 14  1  0
  9 18  1  0
  9 19  1  0
 10 11  1  0
 10 15  1  0
 10 34  1  0
 10 35  1  0
 11 12  1  0
 11 13  1  0
 14 16  1  0
 14 20  1  0
 14 21  1  0
 15 17  1  0
 15 32  1  0
 15 33  1  0
 16 24  1  0
 16 30  1  0
 16 31  1  0
 17 22  1  0
 17 23  1  0
 17 27  1  0
 24 25  1  0
 24 26  1  0
 24 27  1  0
 27 28  1  0
 27 29  1  0
M  CHG  1   1   1
M  RAD  1   1   2
M  END
$$$$

     RDKit          3D

 37 37  0  0  0  0  0  0  0  0999 V2000
   -0.0148   -0.1679   -3.2340 S   0  0  0  0  0  2  0  0  0  0  0  0
   -1.2602    0.6662   -4.7448 Si  0  0  0  0  0  4  0  0  0  0  0  0
   -0.5948    0.7903   -6.0358 H   0  0  0  0  0  0  0  0  0  0  0  0
   -1.6743    2.0081   -4.3096 H   0  0  0  0  0  0  0  0  0  0  0  0
    1.6477   -1.2366   -4.0397 Si  0  0  0  0  0  4  0  0  0  0  0  0
    1.7360   -2.5365   -3.3389 H   0  0  0  0  0  0  0  0  0  0  0  0
    2.8771   -0.4874   -3.6539 H   0  0  0  0  0  0  0  0  0  0  0  0
    1.5552   -1.4499   -6.2307 Si  0  0  0  0  0  4  0  0  0  0  0  0
    2.2835   -3.3904   -6.9665 Si  0  0  0  0  0  4  0  0  0  0  0  0
   -2.7714   -2.6148   -4.2210 Si  0  0  0  0  0  4  0  0  0  0  0  0
   -3.1474   -0.5544   -4.9161 Si  0  0  0  0  0  4  0  0  0  0  0  0
   -3.5339   -0.5581   -6.3342 H   0  0  0  0  0  0  0  0  0  0  0  0
   -4.2220    0.0286   -4.1036 H   0  0  0  0  0  0  0  0  0  0  0  0
    2.0822   -5.0329   -5.5282 Si  0  0  0  0  0  4  0  0  0  0  0  0
   -3.5308   -4.0934   -5.7388 Si  0  0  0  0  0  4  0  0  0  0  0  0
    0.1220   -6.0687   -5.6437 Si  0  0  0  0  0  4  0  0  0  0  0  0
   -2.3598   -3.8018   -7.6057 Si  0  0  0  0  0  4  0  0  0  0  0  0
    1.5893   -3.7253   -8.2223 H   0  0  0  0  0  0  0  0  0  0  0  0
    3.7237   -3.2521   -7.3268 H   0  0  0  0  0  0  0  0  0  0  0  0
    3.1390   -6.0361   -5.7951 H   0  0  0  0  0  0  0  0  0  0  0  0
    2.2723   -4.5418   -4.1742 H   0  0  0  0  0  0  0  0  0  0  0  0
   -3.1915   -2.9658   -8.5167 H   0  0  0  0  0  0  0  0  0  0  0  0
   -1.1145   -3.0857   -7.3530 H   0  0  0  0  0  0  0  0  0  0  0  0
   -0.3056   -6.8626   -7.6638 Si  0  0  0  0  0  4  0  0  0  0  0  0
   -0.7992   -8.2621   -7.5187 H   0  0  0  0  0  0  0  0  0  0  0  0
    0.8959   -6.9490   -8.5084 H   0  0  0  0  0  0  0  0  0  0  0  0
   -1.9379   -5.7069   -8.6483 Si  0  0  0  0  0  4  0  0  0  0  0  0
   -1.4883   -5.3708  -10.0295 H   0  0  0  0  0  0  0  0  0  0  0  0
   -3.1770   -6.4886   -8.7626 H   0  0  0  0  0  0  0  0  0  0  0  0
    0.1480   -7.1723   -4.6453 H   0  0  0  0  0  0  0  0  0  0  0  0
   -0.9280   -5.1468   -5.2612 H   0  0  0  0  0  0  0  0  0  0  0  0
   -3.3585   -5.4611   -5.2627 H   0  0  0  0  0  0  0  0  0  0  0  0
   -4.9649   -3.8746   -5.9587 H   0  0  0  0  0  0  0  0  0  0  0  0
   -3.2953   -2.8947   -2.8932 H   0  0  0  0  0  0  0  0  0  0  0  0
   -1.2977   -2.8285   -4.1521 H   0  0  0  0  0  0  0  0  0  0  0  0
    2.3844   -0.3702   -6.8384 H   0  0  0  0  0  0  0  0  0  0  0  0
    0.1686   -1.1718   -6.6816 H   0  0  0  0  0  0  0  0  0  0  0  0
  1  2  1  0
  1  5  1  0
  2  3  1  0
  2  4  1  0
  2 11  1  0
  5  6  1  0
  5  7  1  0
  5  8  1  0
  8  9  1  0
  8 36  1  0
  8 37  1  0
  9 14  1  0
  9 18  1  0
  9 19  1  0
 10 11  1  0
 10 15  1  0
 10 34  1  0
 10 35  1  0
 11 12  1  0
 11 13  1  0
 14 16  1  0
 14 20  1  0
 14 21  1  0
 15 17  1  0
 15 32  1  0
 15 33  1  0
 16 24  1  0
 16 30  1  0
 16 31  1  0
 17 22  1  0
 17 23  1  0
 17 27  1  0
 24 25  1  0
 24 26  1  0
 24 27  1  0
 27 28  1  0
 27 29  1  0
M  CHG  1   1   1
M  RAD  1   1   2
M  END
$$$$

     RDKit          3D

 37 37  0  0  0  0  0  0  0  0999 V2000
   -0.0148   -0.1679   -3.2340 S   0  0  0  0  0  2  0  0  0  0  0  0
    0.6810   -1.8226   -4.3711 Si  0  0  0  0  0  4  0  0  0  0  0  0
    1.7202   -1.4084   -5.3568 H   0  0  0  0  0  0  0  0  0  0  0  0
    1.2901   -2.7992   -3.4722 H   0  0  0  0  0  0  0  0  0  0  0  0
   -0.2728    1.5869   -4.3982 Si  0  0  0  0  0  4  0  0  0  0  0  0
   -1.2042    1.3506   -5.5368 H   0  0  0  0  0  0  0  0  0  0  0  0
   -0.8388    2.6440   -3.5875 H   0  0  0  0  0  0  0  0  0  0  0  0
    1.6640    2.2567   -5.3294 Si  0  0  0  0  0  4  0  0  0  0  0  0
    1.3101    4.3242   -6.1381 Si  0  0  0  0  0  4  0  0  0  0  0  0
   -2.8084   -1.4870   -5.3491 Si  0  0  0  0  0  4  0  0  0  0  0  0
   -0.9968   -2.7415   -5.5589 Si  0  0  0  0  0  4  0  0  0  0  0  0
   -0.6190   -2.9295   -6.9552 H   0  0  0  0  0  0  0  0  0  0  0  0
   -1.2228   -4.1037   -4.9969 H   0  0  0  0  0  0  0  0  0  0  0  0
   -0.8645    4.6673   -6.4229 Si  0  0  0  0  0  4  0  0  0  0  0  0
   -3.6058   -0.7835   -7.2802 Si  0  0  0  0  0  4  0  0  0  0  0  0
   -1.7330    3.3922   -8.0014 Si  0  0  0  0  0  4  0  0  0  0  0  0
   -2.1457   -0.9408   -8.9382 Si  0  0  0  0  0  4  0  0  0  0  0  0
    1.7865    5.2635   -5.1113 H   0  0  0  0  0  0  0  0  0  0  0  0
    2.0756    4.5616   -7.3562 H   0  0  0  0  0  0  0  0  0  0  0  0
   -1.0474    6.1139   -6.7247 H   0  0  0  0  0  0  0  0  0  0  0  0
   -1.5289    4.4406   -5.1162 H   0  0  0  0  0  0  0  0  0  0  0  0
   -2.7584   -0.3949  -10.1497 H   0  0  0  0  0  0  0  0  0  0  0  0
   -1.8943   -2.3792   -9.1885 H   0  0  0  0  0  0  0  0  0  0  0  0
   -0.2403    2.2146   -9.1064 Si  0  0  0  0  0  4  0  0  0  0  0  0
    1.1091    2.7495   -8.8182 H   0  0  0  0  0  0  0  0  0  0  0  0
   -0.4114    2.2921  -10.5752 H   0  0  0  0  0  0  0  0  0  0  0  0
   -0.2364    0.0624   -8.5488 Si  0  0  0  0  0  4  0  0  0  0  0  0
    0.8097   -0.5885   -9.3914 H   0  0  0  0  0  0  0  0  0  0  0  0
    0.1675   -0.1509   -7.1696 H   0  0  0  0  0  0  0  0  0  0  0  0
   -2.7735    2.5464   -7.4025 H   0  0  0  0  0  0  0  0  0  0  0  0
   -2.4370    4.2798   -8.9709 H   0  0  0  0  0  0  0  0  0  0  0  0
   -4.7703   -1.6276   -7.6420 H   0  0  0  0  0  0  0  0  0  0  0  0
   -4.1195    0.5804   -7.1139 H   0  0  0  0  0  0  0  0  0  0  0  0
   -3.8473   -2.2816   -4.6319 H   0  0  0  0  0  0  0  0  0  0  0  0
   -2.5321   -0.3286   -4.4519 H   0  0  0  0  0  0  0  0  0  0  0  0
    2.0286    1.4116   -6.4633 H   0  0  0  0  0  0  0  0  0  0  0  0
    2.7383    2.2390   -4.3561 H   0  0  0  0  0  0  0  0  0  0  0  0
  1  2  1  0
  1  5  1  0
  2  3  1  0
  2  4  1  0
  2 11  1  0
  5  6  1  0
  5  7  1  0
  5  8  1  0
  8  9  1  0
  8 36  1  0
  8 37  1  0
  9 14  1  0
  9 18  1  0
  9 19  1  0
 10 11  1  0
 10 15  1  0
 10 34  1  0
 10 35  1  0
 11 12  1  0
 11 13  1  0
 14 16  1  0
 14 20  1  0
 14 21  1  0
 15 17  1  0
 15 32  1  0
 15 33  1  0
 16 24  1  0
 16 30  1  0
 16 31  1  0
 17 22  1  0
 17 23  1  0
 17 27  1  0
 24 25  1  0
 24 26  1  0
 24 27  1  0
 27 28  1  0
 27 29  1  0
M  CHG  1   1   1
M  RAD  1   1   2
M  END
$$$$

     RDKit          3D

 37 37  0  0  0  0  0  0  0  0999 V2000
   -0.0148   -0.1679   -3.2340 S   0  0  0  0  0  2  0  0  0  0  0  0
   -0.8478   -1.4304   -4.7311 Si  0  0  0  0  0  4  0  0  0  0  0  0
   -1.0398   -0.7577   -6.0100 H   0  0  0  0  0  0  0  0  0  0  0  0
   -2.1575   -1.9017   -4.2578 H   0  0  0  0  0  0  0  0  0  0  0  0
    0.9610    1.5436   -4.0549 Si  0  0  0  0  0  4  0  0  0  0  0  0
    2.2785    1.6765   -3.3951 H   0  0  0  0  0  0  0  0  0  0  0  0
    0.1769    2.7384   -3.6316 H   0  0  0  0  0  0  0  0  0  0  0  0
    1.1066    1.4813   -6.2525 Si  0  0  0  0  0  4  0  0  0  0  0  0
    2.9920    2.2933   -7.0419 Si  0  0  0  0  0  4  0  0  0  0  0  0
    2.5054   -2.8154   -4.3296 Si  0  0  0  0  0  4  0  0  0  0  0  0
    0.4399   -3.2658   -4.9626 Si  0  0  0  0  0  4  0  0  0  0  0  0
    0.4128   -3.6378   -6.3843 H   0  0  0  0  0  0  0  0  0  0  0  0
   -0.0738   -4.3708   -4.1439 H   0  0  0  0  0  0  0  0  0  0  0  0
    4.6870    2.1430   -5.6593 Si  0  0  0  0  0  4  0  0  0  0  0  0
    3.9627   -3.5004   -5.9024 Si  0  0  0  0  0  4  0  0  0  0  0  0
    5.7948    0.2268   -5.8298 Si  0  0  0  0  0  4  0  0  0  0  0  0
    3.5648   -2.3235   -7.7458 Si  0  0  0  0  0  4  0  0  0  0  0  0
    3.3131    1.6255   -8.3154 H   0  0  0  0  0  0  0  0  0  0  0  0
    2.7855    3.7303   -7.3814 H   0  0  0  0  0  0  0  0  0  0  0  0
    5.6387    3.2414   -5.9463 H   0  0  0  0  0  0  0  0  0  0  0  0
    4.2330    2.3001   -4.2882 H   0  0  0  0  0  0  0  0  0  0  0  0
    2.7330   -3.1786   -8.6388 H   0  0  0  0  0  0  0  0  0  0  0  0
    2.8088   -1.1101   -7.4563 H   0  0  0  0  0  0  0  0  0  0  0  0
    6.5390   -0.1490   -7.8790 Si  0  0  0  0  0  4  0  0  0  0  0  0
    7.9608   -0.5881   -7.7843 H   0  0  0  0  0  0  0  0  0  0  0  0
    6.5506    1.0633   -8.7124 H   0  0  0  0  0  0  0  0  0  0  0  0
    5.4170   -1.8160   -8.8441 Si  0  0  0  0  0  4  0  0  0  0  0  0
    5.0188   -1.3664  -10.2088 H   0  0  0  0  0  0  0  0  0  0  0  0
    6.2427   -3.0219   -8.9972 H   0  0  0  0  0  0  0  0  0  0  0  0
    6.9284    0.2866   -4.8670 H   0  0  0  0  0  0  0  0  0  0  0  0
    4.9279   -0.8627   -5.4297 H   0  0  0  0  0  0  0  0  0  0  0  0
    5.3373   -3.2787   -5.4685 H   0  0  0  0  0  0  0  0  0  0  0  0
    3.7934   -4.9398   -6.1312 H   0  0  0  0  0  0  0  0  0  0  0  0
    2.8486   -3.3408   -3.0174 H   0  0  0  0  0  0  0  0  0  0  0  0
    2.6630   -1.3351   -4.2511 H   0  0  0  0  0  0  0  0  0  0  0  0
   -0.0240    2.2730   -6.8159 H   0  0  0  0  0  0  0  0  0  0  0  0
    0.8687    0.0893   -6.7097 H   0  0  0  0  0  0  0  0  0  0  0  0
  1  2  1  0
  1  5  1  0
  2  3  1  0
  2  4  1  0
  2 11  1  0
  5  6  1  0
  5  7  1  0
  5  8  1  0
  8  9  1  0
  8 36  1  0
  8 37  1  0
  9 14  1  0
  9 18  1  0
  9 19  1  0
 10 11  1  0
 10 15  1  0
 10 34  1  0
 10 35  1  0
 11 12  1  0
 11 13  1  0
 14 16  1  0
 14 20  1  0
 14 21  1  0
 15 17  1  0
 15 32  1  0
 15 33  1  0
 16 24  1  0
 16 30  1  0
 16 31  1  0
 17 22  1  0
 17 23  1  0
 17 27  1  0
 24 25  1  0
 24 26  1  0
 24 27  1  0
 27 28  1  0
 27 29  1  0
M  CHG  1   1   1
M  RAD  1   1   2
M  END
$$$$

     RDKit          3D

 37 37  0  0  0  0  0  0  0  0999 V2000
   -0.0148   -0.1679   -3.2340 S   0  0  0  0  0  2  0  0  0  0  0  0
    1.5735    0.6042   -4.4157 Si  0  0  0  0  0  4  0  0  0  0  0  0
    1.0870    1.6359   -5.3759 H   0  0  0  0  0  0  0  0  0  0  0  0
    2.5541    1.2427   -3.5418 H   0  0  0  0  0  0  0  0  0  0  0  0
   -1.7949   -0.4837   -4.3442 Si  0  0  0  0  0  4  0  0  0  0  0  0
   -1.5592   -1.3937   -5.5002 H   0  0  0  0  0  0  0  0  0  0  0  0
   -2.8021   -1.0992   -3.5065 H   0  0  0  0  0  0  0  0  0  0  0  0
   -2.5703    1.4340   -5.2317 Si  0  0  0  0  0  4  0  0  0  0  0  0
   -4.6473    1.0065   -5.9778 Si  0  0  0  0  0  4  0  0  0  0  0  0
    1.3439   -2.8859   -5.4214 Si  0  0  0  0  0  4  0  0  0  0  0  0
    2.5187   -1.0240   -5.6510 Si  0  0  0  0  0  4  0  0  0  0  0  0
    2.6463   -0.6251   -7.0483 H   0  0  0  0  0  0  0  0  0  0  0  0
    3.9063   -1.2013   -5.1354 H   0  0  0  0  0  0  0  0  0  0  0  0
   -4.9138   -1.1771   -6.2757 Si  0  0  0  0  0  4  0  0  0  0  0  0
    0.6100   -3.6914   -7.3377 Si  0  0  0  0  0  4  0  0  0  0  0  0
   -3.6573   -1.9787   -7.9038 Si  0  0  0  0  0  4  0  0  0  0  0  0
    0.6558   -2.2098   -8.9836 Si  0  0  0  0  0  4  0  0  0  0  0  0
   -5.5709    1.4350   -4.9161 H   0  0  0  0  0  0  0  0  0  0  0  0
   -4.9540    1.7740   -7.1790 H   0  0  0  0  0  0  0  0  0  0  0  0
   -6.3610   -1.4142   -6.5330 H   0  0  0  0  0  0  0  0  0  0  0  0
   -4.6188   -1.8449   -4.9844 H   0  0  0  0  0  0  0  0  0  0  0  0
    0.0955   -2.8317  -10.1837 H   0  0  0  0  0  0  0  0  0  0  0  0
    2.0744   -1.8991   -9.2769 H   0  0  0  0  0  0  0  0  0  0  0  0
   -2.5758   -0.4295   -9.0293 Si  0  0  0  0  0  4  0  0  0  0  0  0
   -3.1537    0.8947   -8.7089 H   0  0  0  0  0  0  0  0  0  0  0  0
   -2.6942   -0.5890  -10.4966 H   0  0  0  0  0  0  0  0  0  0  0  0
   -0.4085   -0.3458   -8.5409 Si  0  0  0  0  0  4  0  0  0  0  0  0
    0.1731    0.7336   -9.3922 H   0  0  0  0  0  0  0  0  0  0  0  0
   -0.1666    0.0526   -7.1647 H   0  0  0  0  0  0  0  0  0  0  0  0
   -2.7523   -2.9907   -7.3440 H   0  0  0  0  0  0  0  0  0  0  0  0
   -4.5475   -2.7077   -8.8522 H   0  0  0  0  0  0  0  0  0  0  0  0
    1.4871   -4.8178   -7.7394 H   0  0  0  0  0  0  0  0  0  0  0  0
   -0.7266   -4.2604   -7.1336 H   0  0  0  0  0  0  0  0  0  0  0  0
    2.2016   -3.8995   -4.7416 H   0  0  0  0  0  0  0  0  0  0  0  0
    0.2052   -2.6647   -4.4845 H   0  0  0  0  0  0  0  0  0  0  0  0
   -1.7773    1.8432   -6.3880 H   0  0  0  0  0  0  0  0  0  0  0  0
   -2.5632    2.4985   -4.2476 H   0  0  0  0  0  0  0  0  0  0  0  0
  1  2  1  0
  1  5  1  0
  2  3  1  0
  2  4  1  0
  2 11  1  0
  5  6  1  0
  5  7  1  0
  5  8  1  0
  8  9  1  0
  8 36  1  0
  8 37  1  0
  9 14  1  0
  9 18  1  0
  9 19  1  0
 10 11  1  0
 10 15  1  0
 10 34  1  0
 10 35  1  0
 11 12  1  0
 11 13  1  0
 14 16  1  0
 14 20  1  0
 14 21  1  0
 15 17  1  0
 15 32  1  0
 15 33  1  0
 16 24  1  0
 16 30  1  0
 16 31  1  0
 17 22  1  0
 17 23  1  0
 17 27  1  0
 24 25  1  0
 24 26  1  0
 24 27  1  0
 27 28  1  0
 27 29  1  0
M  CHG  1   1   1
M  RAD  1   1   2
M  END
$$$$

     RDKit          3D

 37 37  0  0  0  0  0  0  0  0999 V2000
   -0.0148   -0.1679   -3.2340 S   0  0  0  0  0  2  0  0  0  0  0  0
    1.7510   -0.2888   -4.4099 Si  0  0  0  0  0  4  0  0  0  0  0  0
    1.8360    0.8376   -5.3831 H   0  0  0  0  0  0  0  0  0  0  0  0
    2.9165   -0.2038   -3.5340 H   0  0  0  0  0  0  0  0  0  0  0  0
   -1.7179    0.4179   -4.3554 Si  0  0  0  0  0  4  0  0  0  0  0  0
   -1.9563   -0.5041   -5.5013 H   0  0  0  0  0  0  0  0  0  0  0  0
   -2.8996    0.3859   -3.5202 H   0  0  0  0  0  0  0  0  0  0  0  0
   -1.4495    2.4588   -5.2662 Si  0  0  0  0  0  4  0  0  0  0  0  0
   -3.4670    3.0973   -6.0248 Si  0  0  0  0  0  4  0  0  0  0  0  0
   -0.1601   -3.2281   -5.3862 Si  0  0  0  0  0  4  0  0  0  0  0  0
    1.7781   -2.1856   -5.6231 Si  0  0  0  0  0  4  0  0  0  0  0  0
    2.0886   -1.9171   -7.0228 H   0  0  0  0  0  0  0  0  0  0  0  0
    2.8986   -3.0152   -5.0950 H   0  0  0  0  0  0  0  0  0  0  0  0
   -4.7705    1.3224   -6.3053 Si  0  0  0  0  0  4  0  0  0  0  0  0
   -1.1900   -3.5920   -7.3010 Si  0  0  0  0  0  4  0  0  0  0  0  0
   -4.0654   -0.0117   -7.9162 Si  0  0  0  0  0  4  0  0  0  0  0  0
   -0.4186   -2.3430   -8.9596 Si  0  0  0  0  0  4  0  0  0  0  0  0
   -4.0639    3.9363   -4.9744 H   0  0  0  0  0  0  0  0  0  0  0  0
   -3.3544    3.9024   -7.2352 H   0  0  0  0  0  0  0  0  0  0  0  0
   -6.1471    1.8233   -6.5720 H   0  0  0  0  0  0  0  0  0  0  0  0
   -4.8447    0.6109   -5.0058 H   0  0  0  0  0  0  0  0  0  0  0  0
   -1.2090   -2.6237  -10.1585 H   0  0  0  0  0  0  0  0  0  0  0  0
    0.9705   -2.7721   -9.2444 H   0  0  0  0  0  0  0  0  0  0  0  0
   -2.3597    0.7937   -9.0468 Si  0  0  0  0  0  4  0  0  0  0  0  0
   -2.2139    2.2347   -8.7429 H   0  0  0  0  0  0  0  0  0  0  0  0
   -2.5374    0.6958  -10.5136 H   0  0  0  0  0  0  0  0  0  0  0  0
   -0.4318   -0.1916   -8.5420 Si  0  0  0  0  0  4  0  0  0  0  0  0
    0.6070    0.4533   -9.3983 H   0  0  0  0  0  0  0  0  0  0  0  0
   -0.0289    0.0528   -7.1676 H   0  0  0  0  0  0  0  0  0  0  0  0
   -3.7752   -1.3311   -7.3402 H   0  0  0  0  0  0  0  0  0  0  0  0
   -5.1964   -0.2208   -8.8651 H   0  0  0  0  0  0  0  0  0  0  0  0
   -0.9780   -5.0085   -7.6857 H   0  0  0  0  0  0  0  0  0  0  0  0
   -2.6343   -3.4291   -7.1024 H   0  0  0  0  0  0  0  0  0  0  0  0
    0.0878   -4.5243   -4.6906 H   0  0  0  0  0  0  0  0  0  0  0  0
   -1.0458   -2.4655   -4.4603 H   0  0  0  0  0  0  0  0  0  0  0  0
   -0.5550    2.4124   -6.4197 H   0  0  0  0  0  0  0  0  0  0  0  0
   -0.9232    3.3941   -4.2915 H   0  0  0  0  0  0  0  0  0  0  0  0
  1  2  1  0
  1  5  1  0
  2  3  1  0
  2  4  1  0
  2 11  1  0
  5  6  1  0
  5  7  1  0
  5  8  1  0
  8  9  1  0
  8 36  1  0
  8 37  1  0
  9 14  1  0
  9 18  1  0
  9 19  1  0
 10 11  1  0
 10 15  1  0
 10 34  1  0
 10 35  1  0
 11 12  1  0
 11 13  1  0
 14 16  1  0
 14 20  1  0
 14 21  1  0
 15 17  1  0
 15 32  1  0
 15 33  1  0
 16 24  1  0
 16 30  1  0
 16 31  1  0
 17 22  1  0
 17 23  1  0
 17 27  1  0
 24 25  1  0
 24 26  1  0
 24 27  1  0
 27 28  1  0
 27 29  1  0
M  CHG  1   1   1
M  RAD  1   1   2
M  END
$$$$

     RDKit          3D

 37 37  0  0  0  0  0  0  0  0999 V2000
   -0.0148   -0.1679   -3.2340 S   0  0  0  0  0  2  0  0  0  0  0  0
    1.4639    1.0340   -4.1772 Si  0  0  0  0  0  4  0  0  0  0  0  0
    2.6573    0.1925   -4.4087 H   0  0  0  0  0  0  0  0  0  0  0  0
    1.7910    2.1508   -3.2948 H   0  0  0  0  0  0  0  0  0  0  0  0
   -0.6939   -1.7587   -4.4854 Si  0  0  0  0  0  4  0  0  0  0  0  0
   -0.4598   -3.0287   -3.7433 H   0  0  0  0  0  0  0  0  0  0  0  0
    0.0637   -1.8507   -5.7264 H   0  0  0  0  0  0  0  0  0  0  0  0
   -2.8698   -1.5548   -4.8030 Si  0  0  0  0  0  4  0  0  0  0  0  0
   -3.5508   -2.3137   -6.7522 Si  0  0  0  0  0  4  0  0  0  0  0  0
   -1.0418    3.0479   -5.9003 Si  0  0  0  0  0  4  0  0  0  0  0  0
    0.7510    1.7924   -6.1750 Si  0  0  0  0  0  4  0  0  0  0  0  0
    0.5379    0.6308   -7.0204 H   0  0  0  0  0  0  0  0  0  0  0  0
    1.8370    2.5897   -6.7419 H   0  0  0  0  0  0  0  0  0  0  0  0
   -1.9440   -2.4477   -8.2602 Si  0  0  0  0  0  4  0  0  0  0  0  0
   -2.2371    3.2421   -7.7805 Si  0  0  0  0  0  4  0  0  0  0  0  0
   -1.7011   -0.4258   -9.2267 Si  0  0  0  0  0  4  0  0  0  0  0  0
   -4.1581    2.2061   -7.4991 Si  0  0  0  0  0  4  0  0  0  0  0  0
   -4.2051   -3.6391   -6.6508 H   0  0  0  0  0  0  0  0  0  0  0  0
   -4.5912   -1.3871   -7.2750 H   0  0  0  0  0  0  0  0  0  0  0  0
   -2.3688   -3.3710   -9.3248 H   0  0  0  0  0  0  0  0  0  0  0  0
   -0.6453   -2.8209   -7.6868 H   0  0  0  0  0  0  0  0  0  0  0  0
   -4.0399    1.1590   -6.4655 H   0  0  0  0  0  0  0  0  0  0  0  0
   -5.1552    3.1739   -6.9886 H   0  0  0  0  0  0  0  0  0  0  0  0
   -3.4819    0.0934  -10.4462 Si  0  0  0  0  0  4  0  0  0  0  0  0
   -4.0780   -1.1881  -10.9216 H   0  0  0  0  0  0  0  0  0  0  0  0
   -3.0896    0.8221  -11.6721 H   0  0  0  0  0  0  0  0  0  0  0  0
   -4.9630    1.2933   -9.3396 Si  0  0  0  0  0  4  0  0  0  0  0  0
   -6.0799    0.3914   -8.9410 H   0  0  0  0  0  0  0  0  0  0  0  0
   -5.5930    2.3408  -10.1892 H   0  0  0  0  0  0  0  0  0  0  0  0
   -0.5268   -0.4276  -10.1271 H   0  0  0  0  0  0  0  0  0  0  0  0
   -1.5791    0.5404   -8.1478 H   0  0  0  0  0  0  0  0  0  0  0  0
   -2.5014    4.6962   -7.9788 H   0  0  0  0  0  0  0  0  0  0  0  0
   -1.4892    2.7987   -8.9548 H   0  0  0  0  0  0  0  0  0  0  0  0
   -0.6186    4.3697   -5.3927 H   0  0  0  0  0  0  0  0  0  0  0  0
   -1.8589    2.4457   -4.8117 H   0  0  0  0  0  0  0  0  0  0  0  0
   -3.2364   -0.1259   -4.6041 H   0  0  0  0  0  0  0  0  0  0  0  0
   -3.6004   -2.2916   -3.7339 H   0  0  0  0  0  0  0  0  0  0  0  0
  1  2  1  0
  1  5  1  0
  2  3  1  0
  2  4  1  0
  2 11  1  0
  5  6  1  0
  5  7  1  0
  5  8  1  0
  8  9  1  0
  8 36  1  0
  8 37  1  0
  9 14  1  0
  9 18  1  0
  9 19  1  0
 10 11  1  0
 10 15  1  0
 10 34  1  0
 10 35  1  0
 11 12  1  0
 11 13  1  0
 14 16  1  0
 14 20  1  0
 14 21  1  0
 15 17  1  0
 15 32  1  0
 15 33  1  0
 16 24  1  0
 16 30  1  0
 16 31  1  0
 17 22  1  0
 17 23  1  0
 17 27  1  0
 24 25  1  0
 24 26  1  0
 24 27  1  0
 27 28  1  0
 27 29  1  0
M  CHG  1   1   1
M  RAD  1   1   2
M  END
$$$$

     RDKit          3D

 37 37  0  0  0  0  0  0  0  0999 V2000
   -0.0148   -0.1679   -3.2340 S   0  0  0  0  0  2  0  0  0  0  0  0
   -1.6959   -1.1507   -4.0876 Si  0  0  0  0  0  4  0  0  0  0  0  0
   -2.7591   -0.1436   -4.2914 H   0  0  0  0  0  0  0  0  0  0  0  0
   -2.1476   -2.1895   -3.1660 H   0  0  0  0  0  0  0  0  0  0  0  0
    0.8396    1.2800   -4.5500 Si  0  0  0  0  0  4  0  0  0  0  0  0
    0.8302    2.5839   -3.8301 H   0  0  0  0  0  0  0  0  0  0  0  0
    0.0512    1.4624   -5.7614 H   0  0  0  0  0  0  0  0  0  0  0  0
    2.9448    0.7456   -4.9495 Si  0  0  0  0  0  4  0  0  0  0  0  0
    3.6464    1.3584   -6.9423 Si  0  0  0  0  0  4  0  0  0  0  0  0
    0.4037   -3.5489   -5.8604 Si  0  0  0  0  0  4  0  0  0  0  0  0
   -1.1916   -2.0434   -6.0934 Si  0  0  0  0  0  4  0  0  0  0  0  0
   -0.8441   -0.9425   -6.9746 H   0  0  0  0  0  0  0  0  0  0  0  0
   -2.4080   -2.6785   -6.5967 H   0  0  0  0  0  0  0  0  0  0  0  0
    2.0138    1.7051   -8.3875 Si  0  0  0  0  0  4  0  0  0  0  0  0
    1.4740   -3.9545   -7.7818 Si  0  0  0  0  0  4  0  0  0  0  0  0
    1.4300   -0.2744   -9.2940 Si  0  0  0  0  0  4  0  0  0  0  0  0
    3.5387   -3.2141   -7.6030 Si  0  0  0  0  0  4  0  0  0  0  0  0
    4.4952    2.5720   -6.8996 H   0  0  0  0  0  0  0  0  0  0  0  0
    4.5131    0.2766   -7.4838 H   0  0  0  0  0  0  0  0  0  0  0  0
    2.5254    2.5348   -9.4904 H   0  0  0  0  0  0  0  0  0  0  0  0
    0.8116    2.2795   -7.7716 H   0  0  0  0  0  0  0  0  0  0  0  0
    3.6231   -2.1426   -6.5912 H   0  0  0  0  0  0  0  0  0  0  0  0
    4.4011   -4.3114   -7.1096 H   0  0  0  0  0  0  0  0  0  0  0  0
    3.0586   -1.0772  -10.5710 Si  0  0  0  0  0  4  0  0  0  0  0  0
    3.8184    0.0914  -11.1010 H   0  0  0  0  0  0  0  0  0  0  0  0
    2.5092   -1.7606  -11.7621 H   0  0  0  0  0  0  0  0  0  0  0  0
    4.3904   -2.4659   -9.4960 Si  0  0  0  0  0  4  0  0  0  0  0  0
    5.6457   -1.7351   -9.1645 H   0  0  0  0  0  0  0  0  0  0  0  0
    4.8194   -3.6114  -10.3444 H   0  0  0  0  0  0  0  0  0  0  0  0
    0.2312   -0.1123  -10.1464 H   0  0  0  0  0  0  0  0  0  0  0  0
    1.2118   -1.1916   -8.1879 H   0  0  0  0  0  0  0  0  0  0  0  0
    1.5093   -5.4351   -7.9552 H   0  0  0  0  0  0  0  0  0  0  0  0
    0.7506   -3.4249   -8.9356 H   0  0  0  0  0  0  0  0  0  0  0  0
   -0.1898   -4.7829   -5.3043 H   0  0  0  0  0  0  0  0  0  0  0  0
    1.3481   -3.0570   -4.8204 H   0  0  0  0  0  0  0  0  0  0  0  0
    3.1020   -0.7183   -4.7309 H   0  0  0  0  0  0  0  0  0  0  0  0
    3.8229    1.3834   -3.9288 H   0  0  0  0  0  0  0  0  0  0  0  0
  1  2  1  0
  1  5  1  0
  2  3  1  0
  2  4  1  0
  2 11  1  0
  5  6  1  0
  5  7  1  0
  5  8  1  0
  8  9  1  0
  8 36  1  0
  8 37  1  0
  9 14  1  0
  9 18  1  0
  9 19  1  0
 10 11  1  0
 10 15  1  0
 10 34  1  0
 10 35  1  0
 11 12  1  0
 11 13  1  0
 14 16  1  0
 14 20  1  0
 14 21  1  0
 15 17  1  0
 15 32  1  0
 15 33  1  0
 16 24  1  0
 16 30  1  0
 16 31  1  0
 17 22  1  0
 17 23  1  0
 17 27  1  0
 24 25  1  0
 24 26  1  0
 24 27  1  0
 27 28  1  0
 27 29  1  0
M  CHG  1   1   1
M  RAD  1   1   2
M  END
$$$$

     RDKit          3D

 37 37  0  0  0  0  0  0  0  0999 V2000
   -0.0148   -0.1679   -3.2340 S   0  0  0  0  0  2  0  0  0  0  0  0
    1.1552    1.1576   -4.4128 Si  0  0  0  0  0  4  0  0  0  0  0  0
    0.3082    1.9344   -5.3627 H   0  0  0  0  0  0  0  0  0  0  0  0
    1.8251    2.1141   -3.5358 H   0  0  0  0  0  0  0  0  0  0  0  0
   -1.5482   -1.1276   -4.3425 Si  0  0  0  0  0  4  0  0  0  0  0  0
   -0.9913   -1.8718   -5.5070 H   0  0  0  0  0  0  0  0  0  0  0  0
   -2.2418   -2.0852   -3.5077 H   0  0  0  0  0  0  0  0  0  0  0  0
   -2.9981    0.3589   -5.2113 Si  0  0  0  0  0  4  0  0  0  0  0  0
   -4.7618   -0.8195   -5.9559 Si  0  0  0  0  0  4  0  0  0  0  0  0
    2.2612   -2.1513   -5.4485 Si  0  0  0  0  0  4  0  0  0  0  0  0
    2.6405    0.0187   -5.6646 Si  0  0  0  0  0  4  0  0  0  0  0  0
    2.5994    0.4461   -7.0587 H   0  0  0  0  0  0  0  0  0  0  0  0
    3.9944    0.3774   -5.1541 H   0  0  0  0  0  0  0  0  0  0  0  0
   -4.1816   -2.9386   -6.2723 Si  0  0  0  0  0  4  0  0  0  0  0  0
    1.8771   -3.1613   -7.3700 Si  0  0  0  0  0  4  0  0  0  0  0  0
   -2.7241   -3.1919   -7.9105 Si  0  0  0  0  0  4  0  0  0  0  0  0
    1.3482   -1.7614   -9.0029 Si  0  0  0  0  0  4  0  0  0  0  0  0
   -5.7729   -0.7811   -4.8883 H   0  0  0  0  0  0  0  0  0  0  0  0
   -5.3435   -0.2172   -7.1496 H   0  0  0  0  0  0  0  0  0  0  0  0
   -5.4321   -3.7054   -6.5281 H   0  0  0  0  0  0  0  0  0  0  0  0
   -3.6480   -3.4539   -4.9877 H   0  0  0  0  0  0  0  0  0  0  0  0
    1.0589   -2.5408  -10.2070 H   0  0  0  0  0  0  0  0  0  0  0  0
    2.5411   -0.9335   -9.2970 H   0  0  0  0  0  0  0  0  0  0  0  0
   -2.3175   -1.3402   -9.0250 Si  0  0  0  0  0  4  0  0  0  0  0  0
   -3.3528   -0.3366   -8.6916 H   0  0  0  0  0  0  0  0  0  0  0  0
   -2.3747   -1.5221  -10.4934 H   0  0  0  0  0  0  0  0  0  0  0  0
   -0.3413   -0.4438   -8.5412 Si  0  0  0  0  0  4  0  0  0  0  0  0
   -0.2175    0.7816   -9.3845 H   0  0  0  0  0  0  0  0  0  0  0  0
   -0.2609    0.0067   -7.1622 H   0  0  0  0  0  0  0  0  0  0  0  0
   -1.4996   -3.7888   -7.3618 H   0  0  0  0  0  0  0  0  0  0  0  0
   -3.2764   -4.1973   -8.8631 H   0  0  0  0  0  0  0  0  0  0  0  0
    3.1137   -3.8678   -7.7837 H   0  0  0  0  0  0  0  0  0  0  0  0
    0.8575   -4.1964   -7.1676 H   0  0  0  0  0  0  0  0  0  0  0  0
    3.4432   -2.7686   -4.7797 H   0  0  0  0  0  0  0  0  0  0  0  0
    1.1290   -2.3855   -4.5068 H   0  0  0  0  0  0  0  0  0  0  0  0
   -2.4262    1.0466   -6.3659 H   0  0  0  0  0  0  0  0  0  0  0  0
   -3.3899    1.3394   -4.2179 H   0  0  0  0  0  0  0  0  0  0  0  0
  1  2  1  0
  1  5  1  0
  2  3  1  0
  2  4  1  0
  2 11  1  0
  5  6  1  0
  5  7  1  0
  5  8  1  0
  8  9  1  0
  8 36  1  0
  8 37  1  0
  9 14  1  0
  9 18  1  0
  9 19  1  0
 10 11  1  0
 10 15  1  0
 10 34  1  0
 10 35  1  0
 11 12  1  0
 11 13  1  0
 14 16  1  0
 14 20  1  0
 14 21  1  0
 15 17  1  0
 15 32  1  0
 15 33  1  0
 16 24  1  0
 16 30  1  0
 16 31  1  0
 17 22  1  0
 17 23  1  0
 17 27  1  0
 24 25  1  0
 24 26  1  0
 24 27  1  0
 27 28  1  0
 27 29  1  0
M  CHG  1   1   1
M  RAD  1   1   2
M  END
$$$$

     RDKit          3D

 37 37  0  0  0  0  0  0  0  0999 V2000
   -0.0148   -0.1679   -3.2340 S   0  0  0  0  0  2  0  0  0  0  0  0
   -1.4502    1.1285   -4.1171 Si  0  0  0  0  0  4  0  0  0  0  0  0
   -0.7990    2.4334   -4.3600 H   0  0  0  0  0  0  0  0  0  0  0  0
   -2.5714    1.2822   -3.1940 H   0  0  0  0  0  0  0  0  0  0  0  0
    1.6135   -0.5979   -4.5462 Si  0  0  0  0  0  4  0  0  0  0  0  0
    2.8611   -0.1881   -3.8432 H   0  0  0  0  0  0  0  0  0  0  0  0
    1.5517    0.1757   -5.7792 H   0  0  0  0  0  0  0  0  0  0  0  0
    1.7162   -2.7775   -4.8862 Si  0  0  0  0  0  4  0  0  0  0  0  0
    2.4980   -3.3242   -6.8684 Si  0  0  0  0  0  4  0  0  0  0  0  0
   -3.1379   -1.6283   -5.8065 Si  0  0  0  0  0  4  0  0  0  0  0  0
   -2.1658    0.3301   -6.0982 Si  0  0  0  0  0  4  0  0  0  0  0  0
   -1.0155    0.2954   -6.9842 H   0  0  0  0  0  0  0  0  0  0  0  0
   -3.1312    1.2935   -6.6238 H   0  0  0  0  0  0  0  0  0  0  0  0
    2.3455   -1.7021   -8.3582 Si  0  0  0  0  0  4  0  0  0  0  0  0
   -3.2217   -2.8230   -7.6953 Si  0  0  0  0  0  4  0  0  0  0  0  0
    0.2775   -1.7474   -9.2542 Si  0  0  0  0  0  4  0  0  0  0  0  0
   -1.9091   -4.5755   -7.4742 Si  0  0  0  0  0  4  0  0  0  0  0  0
    3.9070   -3.7799   -6.8196 H   0  0  0  0  0  0  0  0  0  0  0  0
    1.7144   -4.4837   -7.3744 H   0  0  0  0  0  0  0  0  0  0  0  0
    3.2833   -1.9791   -9.4583 H   0  0  0  0  0  0  0  0  0  0  0  0
    2.5461   -0.3680   -7.7799 H   0  0  0  0  0  0  0  0  0  0  0  0
   -0.8551   -4.3152   -6.4741 H   0  0  0  0  0  0  0  0  0  0  0  0
   -2.7040   -5.7070   -6.9456 H   0  0  0  0  0  0  0  0  0  0  0  0
   -0.0199   -3.5741  -10.4798 Si  0  0  0  0  0  4  0  0  0  0  0  0
    1.3173   -3.9736  -11.0052 H   0  0  0  0  0  0  0  0  0  0  0  0
   -0.8396   -3.2814  -11.6756 H   0  0  0  0  0  0  0  0  0  0  0  0
   -0.9535   -5.2234   -9.3544 Si  0  0  0  0  0  4  0  0  0  0  0  0
    0.1140   -6.2007   -9.0008 H   0  0  0  0  0  0  0  0  0  0  0  0
   -1.9273   -5.9916  -10.1774 H   0  0  0  0  0  0  0  0  0  0  0  0
    0.0780   -0.5776  -10.1382 H   0  0  0  0  0  0  0  0  0  0  0  0
   -0.6582   -1.7763   -8.1424 H   0  0  0  0  0  0  0  0  0  0  0  0
   -4.6281   -3.2941   -7.8492 H   0  0  0  0  0  0  0  0  0  0  0  0
   -2.9322   -2.0086   -8.8733 H   0  0  0  0  0  0  0  0  0  0  0  0
   -4.4888   -1.4061   -5.2500 H   0  0  0  0  0  0  0  0  0  0  0  0
   -2.3864   -2.3587   -4.7495 H   0  0  0  0  0  0  0  0  0  0  0  0
    0.3633   -3.3495   -4.6454 H   0  0  0  0  0  0  0  0  0  0  0  0
    2.5876   -3.4024   -3.8520 H   0  0  0  0  0  0  0  0  0  0  0  0
  1  2  1  0
  1  5  1  0
  2  3  1  0
  2  4  1  0
  2 11  1  0
  5  6  1  0
  5  7  1  0
  5  8  1  0
  8  9  1  0
  8 36  1  0
  8 37  1  0
  9 14  1  0
  9 18  1  0
  9 19  1  0
 10 11  1  0
 10 15  1  0
 10 34  1  0
 10 35  1  0
 11 12  1  0
 11 13  1  0
 14 16  1  0
 14 20  1  0
 14 21  1  0
 15 17  1  0
 15 32  1  0
 15 33  1  0
 16 24  1  0
 16 30  1  0
 16 31  1  0
 17 22  1  0
 17 23  1  0
 17 27  1  0
 24 25  1  0
 24 26  1  0
 24 27  1  0
 27 28  1  0
 27 29  1  0
M  CHG  1   1   1
M  RAD  1   1   2
M  END
$$$$
