
     RDKit          3D

 37 37  0  0  0  0  0  0  0  0999 V2000
    1.9855   -0.0668   -2.5035 S   0  0  0  0  0  2  0  0  0  0  0  0
    1.2313    0.7685   -4.2962 Si  0  0  0  0  0  4  0  0  0  0  0  0
    0.6266   -0.3317   -5.0988 H   0  0  0  0  0  0  0  0  0  0  0  0
    0.0897    1.6636   -3.9513 H   0  0  0  0  0  0  0  0  0  0  0  0
    3.1723   -1.7797   -2.8991 Si  0  0  0  0  0  4  0  0  0  0  0  0
    3.5330   -2.5112   -1.6849 H   0  0  0  0  0  0  0  0  0  0  0  0
    4.4552   -1.3088   -3.4965 H   0  0  0  0  0  0  0  0  0  0  0  0
    2.2380   -3.1300   -4.4111 Si  0  0  0  0  0  4  0  0  0  0  0  0
    2.8000   -2.3821   -6.4465 Si  0  0  0  0  0  4  0  0  0  0  0  0
    4.7764    1.7520   -4.6175 Si  0  0  0  0  0  4  0  0  0  0  0  0
    2.7278    1.8944   -5.4513 Si  0  0  0  0  0  4  0  0  0  0  0  0
    2.2950    3.3101   -5.6213 H   0  0  0  0  0  0  0  0  0  0  0  0
    2.7638    1.3360   -6.8331 H   0  0  0  0  0  0  0  0  0  0  0  0
    3.1550   -4.1153   -7.8433 Si  0  0  0  0  0  4  0  0  0  0  0  0
    6.1961    0.8625   -6.0852 Si  0  0  0  0  0  4  0  0  0  0  0  0
    4.6414   -5.4567   -6.8881 Si  0  0  0  0  0  4  0  0  0  0  0  0
    7.2437   -0.9070   -5.2881 Si  0  0  0  0  0  4  0  0  0  0  0  0
    1.8203   -1.4578   -6.9799 H   0  0  0  0  0  0  0  0  0  0  0  0
    4.1212   -1.7084   -6.3133 H   0  0  0  0  0  0  0  0  0  0  0  0
    3.6996   -3.5449   -9.0887 H   0  0  0  0  0  0  0  0  0  0  0  0
    1.8750   -4.7765   -8.0489 H   0  0  0  0  0  0  0  0  0  0  0  0
    8.6941   -0.5809   -5.1840 H   0  0  0  0  0  0  0  0  0  0  0  0
    6.8138   -1.2843   -3.9400 H   0  0  0  0  0  0  0  0  0  0  0  0
    6.0879   -4.3458   -5.6179 Si  0  0  0  0  0  4  0  0  0  0  0  0
    5.3612   -3.8102   -4.4635 H   0  0  0  0  0  0  0  0  0  0  0  0
    7.1003   -5.2998   -5.1466 H   0  0  0  0  0  0  0  0  0  0  0  0
    7.0375   -2.6593   -6.6927 Si  0  0  0  0  0  4  0  0  0  0  0  0
    6.2230   -2.2231   -7.8614 H   0  0  0  0  0  0  0  0  0  0  0  0
    8.3557   -3.0279   -7.2429 H   0  0  0  0  0  0  0  0  0  0  0  0
    3.8926   -6.3820   -5.9924 H   0  0  0  0  0  0  0  0  0  0  0  0
    5.3074   -6.3073   -7.8821 H   0  0  0  0  0  0  0  0  0  0  0  0
    5.3964    0.4301   -7.2670 H   0  0  0  0  0  0  0  0  0  0  0  0
    7.1416    1.8807   -6.6126 H   0  0  0  0  0  0  0  0  0  0  0  0
    4.8115    1.0582   -3.3222 H   0  0  0  0  0  0  0  0  0  0  0  0
    5.2420    3.1430   -4.3453 H   0  0  0  0  0  0  0  0  0  0  0  0
    2.8975   -4.4582   -4.2604 H   0  0  0  0  0  0  0  0  0  0  0  0
    0.8054   -3.2539   -4.2434 H   0  0  0  0  0  0  0  0  0  0  0  0
  1  2  1  0
  1  5  1  0
  2  3  1  0
  2  4  1  0
  2 11  1  0
  5  6  1  0
  5  7  1  0
  5  8  1  0
  8  9  1  0
  8 36  1  0
  8 37  1  0
  9 14  1  0
  9 18  1  0
  9 19  1  0
 10 11  1  0
 10 15  1  0
 10 34  1  0
 10 35  1  0
 11 12  1  0
 11 13  1  0
 14 16  1  0
 14 20  1  0
 14 21  1  0
 15 17  1  0
 15 32  1  0
 15 33  1  0
 16 24  1  0
 16 30  1  0
 16 31  1  0
 17 22  1  0
 17 23  1  0
 17 27  1  0
 24 25  1  0
 24 26  1  0
 24 27  1  0
 27 28  1  0
 27 29  1  0
M  CHG  1   1   1
M  RAD  1   1   2
M  END
$$$$
