
     RDKit          3D

 37 37  0  0  0  0  0  0  0  0999 V2000
    0.9888    1.3896    1.7835 S   0  0  0  0  0  2  0  0  0  0  0  0
    1.4922    0.9815    3.8162 Si  0  0  0  0  0  4  0  0  0  0  0  0
    1.7353   -0.4772    3.9280 H   0  0  0  0  0  0  0  0  0  0  0  0
    0.4125    1.3482    4.7298 H   0  0  0  0  0  0  0  0  0  0  0  0
    0.4347    3.4230    1.4846 Si  0  0  0  0  0  4  0  0  0  0  0  0
   -1.0208    3.5833    1.2674 H   0  0  0  0  0  0  0  0  0  0  0  0
    0.8382    4.2973    2.5829 H   0  0  0  0  0  0  0  0  0  0  0  0
    1.4336    4.1389   -0.3980 Si  0  0  0  0  0  4  0  0  0  0  0  0
    3.6669    3.9918   -0.1095 Si  0  0  0  0  0  4  0  0  0  0  0  0
    2.9473    4.2063    4.5319 Si  0  0  0  0  0  4  0  0  0  0  0  0
    3.3586    2.0135    4.4441 Si  0  0  0  0  0  4  0  0  0  0  0  0
    4.4602    1.6955    3.5354 H   0  0  0  0  0  0  0  0  0  0  0  0
    3.7267    1.5197    5.7764 H   0  0  0  0  0  0  0  0  0  0  0  0
    4.4307    6.0418    0.2335 Si  0  0  0  0  0  4  0  0  0  0  0  0
    4.2076    5.1727    6.0920 Si  0  0  0  0  0  4  0  0  0  0  0  0
    6.5877    6.0531    0.7811 Si  0  0  0  0  0  4  0  0  0  0  0  0
    5.2061    6.9533    5.1583 Si  0  0  0  0  0  4  0  0  0  0  0  0
    4.2383    3.4963   -1.3919 H   0  0  0  0  0  0  0  0  0  0  0  0
    3.9852    3.0695    0.9784 H   0  0  0  0  0  0  0  0  0  0  0  0
    3.6144    6.7638    1.2274 H   0  0  0  0  0  0  0  0  0  0  0  0
    4.2962    6.7933   -1.0366 H   0  0  0  0  0  0  0  0  0  0  0  0
    4.3447    7.4553    4.0772 H   0  0  0  0  0  0  0  0  0  0  0  0
    5.4166    8.0041    6.1519 H   0  0  0  0  0  0  0  0  0  0  0  0
    6.9918    4.9342    2.6402 Si  0  0  0  0  0  4  0  0  0  0  0  0
    6.0126    3.9056    2.9304 H   0  0  0  0  0  0  0  0  0  0  0  0
    8.3094    4.2561    2.4868 H   0  0  0  0  0  0  0  0  0  0  0  0
    7.1972    6.2966    4.4112 Si  0  0  0  0  0  4  0  0  0  0  0  0
    8.0180    7.4598    4.1014 H   0  0  0  0  0  0  0  0  0  0  0  0
    7.8300    5.5002    5.4866 H   0  0  0  0  0  0  0  0  0  0  0  0
    6.9848    7.4597    0.9890 H   0  0  0  0  0  0  0  0  0  0  0  0
    7.3614    5.5387   -0.3470 H   0  0  0  0  0  0  0  0  0  0  0  0
    3.4133    5.6023    7.2482 H   0  0  0  0  0  0  0  0  0  0  0  0
    5.2423    4.2536    6.6020 H   0  0  0  0  0  0  0  0  0  0  0  0
    3.2441    4.7544    3.1880 H   0  0  0  0  0  0  0  0  0  0  0  0
    1.5430    4.4071    4.8835 H   0  0  0  0  0  0  0  0  0  0  0  0
    0.9840    3.2875   -1.4867 H   0  0  0  0  0  0  0  0  0  0  0  0
    1.0475    5.5338   -0.6935 H   0  0  0  0  0  0  0  0  0  0  0  0
  1  2  1  0
  1  5  1  0
  2  3  1  0
  2  4  1  0
  2 11  1  0
  5  6  1  0
  5  7  1  0
  5  8  1  0
  8  9  1  0
  8 36  1  0
  8 37  1  0
  9 14  1  0
  9 18  1  0
  9 19  1  0
 10 11  1  0
 10 15  1  0
 10 34  1  0
 10 35  1  0
 11 12  1  0
 11 13  1  0
 14 16  1  0
 14 20  1  0
 14 21  1  0
 15 17  1  0
 15 32  1  0
 15 33  1  0
 16 24  1  0
 16 30  1  0
 16 31  1  0
 17 22  1  0
 17 23  1  0
 17 27  1  0
 24 25  1  0
 24 26  1  0
 24 27  1  0
 27 28  1  0
 27 29  1  0
M  CHG  1   1   1
M  RAD  1   1   2
M  END
$$$$

     RDKit          3D

 37 37  0  0  0  0  0  0  0  0999 V2000
    0.9888    1.3896    1.7835 S   0  0  0  0  0  2  0  0  0  0  0  0
    0.9351    0.2069    3.5639 Si  0  0  0  0  0  4  0  0  0  0  0  0
    0.3622   -1.1343    3.2999 H   0  0  0  0  0  0  0  0  0  0  0  0
    2.2938   -0.0334    4.0977 H   0  0  0  0  0  0  0  0  0  0  0  0
    2.8962    2.2949    1.4742 Si  0  0  0  0  0  4  0  0  0  0  0  0
    3.1454    2.3145    0.0128 H   0  0  0  0  0  0  0  0  0  0  0  0
    3.9717    1.5808    2.1410 H   0  0  0  0  0  0  0  0  0  0  0  0
    2.8117    4.4523    2.1169 Si  0  0  0  0  0  4  0  0  0  0  0  0
    4.7476    5.4616    1.8483 Si  0  0  0  0  0  4  0  0  0  0  0  0
    0.8358    1.4342    7.0122 Si  0  0  0  0  0  4  0  0  0  0  0  0
   -0.3366    1.1736    5.1135 Si  0  0  0  0  0  4  0  0  0  0  0  0
   -1.5806    0.4416    5.3485 H   0  0  0  0  0  0  0  0  0  0  0  0
   -0.6675    2.5431    4.6428 H   0  0  0  0  0  0  0  0  0  0  0  0
    6.0323    5.4464    3.6334 Si  0  0  0  0  0  4  0  0  0  0  0  0
    2.2737    3.1213    6.6735 Si  0  0  0  0  0  4  0  0  0  0  0  0
    4.9497    5.9265    5.5021 Si  0  0  0  0  0  4  0  0  0  0  0  0
    4.1594    2.2844    5.8218 Si  0  0  0  0  0  4  0  0  0  0  0  0
    5.4770    4.7952    0.7401 H   0  0  0  0  0  0  0  0  0  0  0  0
    4.5209    6.8661    1.4417 H   0  0  0  0  0  0  0  0  0  0  0  0
    7.0882    6.4839    3.4480 H   0  0  0  0  0  0  0  0  0  0  0  0
    6.7734    4.1629    3.7515 H   0  0  0  0  0  0  0  0  0  0  0  0
    4.0631    0.8187    5.6478 H   0  0  0  0  0  0  0  0  0  0  0  0
    4.4664    2.9434    4.5407 H   0  0  0  0  0  0  0  0  0  0  0  0
    6.0100    5.0305    7.2712 Si  0  0  0  0  0  4  0  0  0  0  0  0
    7.4175    5.4272    7.3052 H   0  0  0  0  0  0  0  0  0  0  0  0
    5.3716    5.4891    8.5054 H   0  0  0  0  0  0  0  0  0  0  0  0
    5.8361    2.7964    7.2251 Si  0  0  0  0  0  4  0  0  0  0  0  0
    7.0885    2.2039    6.7120 H   0  0  0  0  0  0  0  0  0  0  0  0
    5.5019    2.2590    8.5570 H   0  0  0  0  0  0  0  0  0  0  0  0
    4.8589    7.3876    5.7414 H   0  0  0  0  0  0  0  0  0  0  0  0
    3.6116    5.3774    5.4677 H   0  0  0  0  0  0  0  0  0  0  0  0
    2.5272    3.8668    7.9143 H   0  0  0  0  0  0  0  0  0  0  0  0
    1.6248    4.0586    5.7400 H   0  0  0  0  0  0  0  0  0  0  0  0
    1.5836    0.2246    7.3460 H   0  0  0  0  0  0  0  0  0  0  0  0
   -0.0516    1.8210    8.1088 H   0  0  0  0  0  0  0  0  0  0  0  0
    2.2573    4.5806    3.4641 H   0  0  0  0  0  0  0  0  0  0  0  0
    1.8285    5.0997    1.2003 H   0  0  0  0  0  0  0  0  0  0  0  0
  1  2  1  0
  1  5  1  0
  2  3  1  0
  2  4  1  0
  2 11  1  0
  5  6  1  0
  5  7  1  0
  5  8  1  0
  8  9  1  0
  8 36  1  0
  8 37  1  0
  9 14  1  0
  9 18  1  0
  9 19  1  0
 10 11  1  0
 10 15  1  0
 10 34  1  0
 10 35  1  0
 11 12  1  0
 11 13  1  0
 14 16  1  0
 14 20  1  0
 14 21  1  0
 15 17  1  0
 15 32  1  0
 15 33  1  0
 16 24  1  0
 16 30  1  0
 16 31  1  0
 17 22  1  0
 17 23  1  0
 17 27  1  0
 24 25  1  0
 24 26  1  0
 24 27  1  0
 27 28  1  0
 27 29  1  0
M  CHG  1   1   1
M  RAD  1   1   2
M  END
$$$$

     RDKit          3D

 37 37  0  0  0  0  0  0  0  0999 V2000
    0.9888    1.3896    1.7835 S   0  0  0  0  0  2  0  0  0  0  0  0
    2.9916    1.9533    2.1736 Si  0  0  0  0  0  4  0  0  0  0  0  0
    3.3162    1.9969    3.6055 H   0  0  0  0  0  0  0  0  0  0  0  0
    3.8882    0.9190    1.5833 H   0  0  0  0  0  0  0  0  0  0  0  0
   -0.3288    1.7602    3.4029 Si  0  0  0  0  0  4  0  0  0  0  0  0
   -1.6364    2.1950    2.8326 H   0  0  0  0  0  0  0  0  0  0  0  0
    0.1128    2.8395    4.2829 H   0  0  0  0  0  0  0  0  0  0  0  0
   -0.6162   -0.0612    4.6803 Si  0  0  0  0  0  4  0  0  0  0  0  0
    0.6217    0.0864    6.5487 Si  0  0  0  0  0  4  0  0  0  0  0  0
    2.7909    5.5665    2.5592 Si  0  0  0  0  0  4  0  0  0  0  0  0
    3.5427    3.9001    1.2718 Si  0  0  0  0  0  4  0  0  0  0  0  0
    2.9849    3.9772   -0.0749 H   0  0  0  0  0  0  0  0  0  0  0  0
    5.0193    4.0068    1.2353 H   0  0  0  0  0  0  0  0  0  0  0  0
    2.7790   -0.0790    6.1210 Si  0  0  0  0  0  4  0  0  0  0  0  0
    2.6627    4.9004    4.6641 Si  0  0  0  0  0  4  0  0  0  0  0  0
    3.9327    1.6551    6.9767 Si  0  0  0  0  0  4  0  0  0  0  0  0
    4.4497    5.4032    5.8487 Si  0  0  0  0  0  4  0  0  0  0  0  0
    0.2682    1.3063    7.2650 H   0  0  0  0  0  0  0  0  0  0  0  0
    0.2171   -1.0540    7.4053 H   0  0  0  0  0  0  0  0  0  0  0  0
    3.3505   -1.3138    6.7293 H   0  0  0  0  0  0  0  0  0  0  0  0
    3.0016   -0.1944    4.6790 H   0  0  0  0  0  0  0  0  0  0  0  0
    4.1285    5.2876    7.2742 H   0  0  0  0  0  0  0  0  0  0  0  0
    4.8341    6.7941    5.5599 H   0  0  0  0  0  0  0  0  0  0  0  0
    5.8248    1.9807    5.8599 Si  0  0  0  0  0  4  0  0  0  0  0  0
    6.9925    1.4393    6.6019 H   0  0  0  0  0  0  0  0  0  0  0  0
    5.7455    1.1813    4.6116 H   0  0  0  0  0  0  0  0  0  0  0  0
    6.1836    4.1017    5.3785 Si  0  0  0  0  0  4  0  0  0  0  0  0
    6.4801    4.2410    3.9363 H   0  0  0  0  0  0  0  0  0  0  0  0
    7.3435    4.6048    6.1577 H   0  0  0  0  0  0  0  0  0  0  0  0
    4.2284    1.3071    8.3885 H   0  0  0  0  0  0  0  0  0  0  0  0
    3.1523    2.8881    6.9267 H   0  0  0  0  0  0  0  0  0  0  0  0
    2.4119    3.4521    4.7137 H   0  0  0  0  0  0  0  0  0  0  0  0
    1.4781    5.5467    5.2804 H   0  0  0  0  0  0  0  0  0  0  0  0
    3.6214    6.7572    2.4032 H   0  0  0  0  0  0  0  0  0  0  0  0
    1.4369    5.9158    2.0502 H   0  0  0  0  0  0  0  0  0  0  0  0
   -0.3410   -1.2862    3.9582 H   0  0  0  0  0  0  0  0  0  0  0  0
   -2.0365   -0.0367    5.1245 H   0  0  0  0  0  0  0  0  0  0  0  0
  1  2  1  0
  1  5  1  0
  2  3  1  0
  2  4  1  0
  2 11  1  0
  5  6  1  0
  5  7  1  0
  5  8  1  0
  8  9  1  0
  8 36  1  0
  8 37  1  0
  9 14  1  0
  9 18  1  0
  9 19  1  0
 10 11  1  0
 10 15  1  0
 10 34  1  0
 10 35  1  0
 11 12  1  0
 11 13  1  0
 14 16  1  0
 14 20  1  0
 14 21  1  0
 15 17  1  0
 15 32  1  0
 15 33  1  0
 16 24  1  0
 16 30  1  0
 16 31  1  0
 17 22  1  0
 17 23  1  0
 17 27  1  0
 24 25  1  0
 24 26  1  0
 24 27  1  0
 27 28  1  0
 27 29  1  0
M  CHG  1   1   1
M  RAD  1   1   2
M  END
$$$$

     RDKit          3D

 37 37  0  0  0  0  0  0  0  0999 V2000
    0.9888    1.3896    1.7835 S   0  0  0  0  0  2  0  0  0  0  0  0
    2.9637    2.0721    2.1227 Si  0  0  0  0  0  4  0  0  0  0  0  0
    3.3420    2.0792    3.5420 H   0  0  0  0  0  0  0  0  0  0  0  0
    3.9027    1.1262    1.4549 H   0  0  0  0  0  0  0  0  0  0  0  0
   -0.2844    1.6030    3.4656 Si  0  0  0  0  0  4  0  0  0  0  0  0
   -1.6399    1.9707    2.9639 H   0  0  0  0  0  0  0  0  0  0  0  0
    0.1195    2.6732    4.3745 H   0  0  0  0  0  0  0  0  0  0  0  0
   -0.3984   -0.2843    4.6724 Si  0  0  0  0  0  4  0  0  0  0  0  0
    0.9010   -0.1291    6.4979 Si  0  0  0  0  0  4  0  0  0  0  0  0
    2.5388    5.6444    2.6722 Si  0  0  0  0  0  4  0  0  0  0  0  0
    3.3474    4.0871    1.2863 Si  0  0  0  0  0  4  0  0  0  0  0  0
    2.7321    4.1809   -0.0339 H   0  0  0  0  0  0  0  0  0  0  0  0
    4.8110    4.2956    1.1994 H   0  0  0  0  0  0  0  0  0  0  0  0
    3.0456   -0.1295    5.9831 Si  0  0  0  0  0  4  0  0  0  0  0  0
    2.5399    4.8857    4.7494 Si  0  0  0  0  0  4  0  0  0  0  0  0
    4.1149    1.6427    6.8698 Si  0  0  0  0  0  4  0  0  0  0  0  0
    4.3356    5.4604    5.8872 Si  0  0  0  0  0  4  0  0  0  0  0  0
    0.4963    1.0336    7.2793 H   0  0  0  0  0  0  0  0  0  0  0  0
    0.6079   -1.3286    7.3187 H   0  0  0  0  0  0  0  0  0  0  0  0
    3.7220   -1.3463    6.5155 H   0  0  0  0  0  0  0  0  0  0  0  0
    3.2173   -0.1705    4.5302 H   0  0  0  0  0  0  0  0  0  0  0  0
    4.0804    5.2650    7.3174 H   0  0  0  0  0  0  0  0  0  0  0  0
    4.6148    6.8848    5.6450 H   0  0  0  0  0  0  0  0  0  0  0  0
    5.9347    2.1419    5.6982 Si  0  0  0  0  0  4  0  0  0  0  0  0
    7.1647    1.6515    6.3720 H   0  0  0  0  0  0  0  0  0  0  0  0
    5.8586    1.3906    4.4203 H   0  0  0  0  0  0  0  0  0  0  0  0
    6.1320    4.3003    5.2965 Si  0  0  0  0  0  4  0  0  0  0  0  0
    6.3604    4.5183    3.8517 H   0  0  0  0  0  0  0  0  0  0  0  0
    7.2862    4.8491    6.0529 H   0  0  0  0  0  0  0  0  0  0  0  0
    4.4896    1.2583    8.2530 H   0  0  0  0  0  0  0  0  0  0  0  0
    3.2528    2.8207    6.9026 H   0  0  0  0  0  0  0  0  0  0  0  0
    2.3881    3.4228    4.7453 H   0  0  0  0  0  0  0  0  0  0  0  0
    1.3407    5.4241    5.4370 H   0  0  0  0  0  0  0  0  0  0  0  0
    3.2813    6.8944    2.5371 H   0  0  0  0  0  0  0  0  0  0  0  0
    1.1452    5.9212    2.2297 H   0  0  0  0  0  0  0  0  0  0  0  0
   -0.0716   -1.4572    3.8880 H   0  0  0  0  0  0  0  0  0  0  0  0
   -1.7982   -0.3749    5.1700 H   0  0  0  0  0  0  0  0  0  0  0  0
  1  2  1  0
  1  5  1  0
  2  3  1  0
  2  4  1  0
  2 11  1  0
  5  6  1  0
  5  7  1  0
  5  8  1  0
  8  9  1  0
  8 36  1  0
  8 37  1  0
  9 14  1  0
  9 18  1  0
  9 19  1  0
 10 11  1  0
 10 15  1  0
 10 34  1  0
 10 35  1  0
 11 12  1  0
 11 13  1  0
 14 16  1  0
 14 20  1  0
 14 21  1  0
 15 17  1  0
 15 32  1  0
 15 33  1  0
 16 24  1  0
 16 30  1  0
 16 31  1  0
 17 22  1  0
 17 23  1  0
 17 27  1  0
 24 25  1  0
 24 26  1  0
 24 27  1  0
 27 28  1  0
 27 29  1  0
M  CHG  1   1   1
M  RAD  1   1   2
M  END
$$$$

     RDKit          3D

 37 37  0  0  0  0  0  0  0  0999 V2000
    0.9888    1.3896    1.7835 S   0  0  0  0  0  2  0  0  0  0  0  0
    1.0446    0.1705    3.5422 Si  0  0  0  0  0  4  0  0  0  0  0  0
    0.4352    0.8194    4.6943 H   0  0  0  0  0  0  0  0  0  0  0  0
    0.2222   -1.0387    3.2518 H   0  0  0  0  0  0  0  0  0  0  0  0
    0.8042    3.4552    2.2290 Si  0  0  0  0  0  4  0  0  0  0  0  0
   -0.4708    3.9373    1.6252 H   0  0  0  0  0  0  0  0  0  0  0  0
    1.8685    4.2598    1.5691 H   0  0  0  0  0  0  0  0  0  0  0  0
    0.7303    3.8802    4.3931 Si  0  0  0  0  0  4  0  0  0  0  0  0
    2.1887    5.5019    4.9675 Si  0  0  0  0  0  4  0  0  0  0  0  0
    3.4268   -1.5105    5.8013 Si  0  0  0  0  0  4  0  0  0  0  0  0
    3.1384   -0.4573    3.8965 Si  0  0  0  0  0  4  0  0  0  0  0  0
    4.0212    0.7081    3.7785 H   0  0  0  0  0  0  0  0  0  0  0  0
    3.5223   -1.3781    2.7885 H   0  0  0  0  0  0  0  0  0  0  0  0
    2.1270    5.7002    7.1788 Si  0  0  0  0  0  4  0  0  0  0  0  0
    2.3129   -0.6051    7.4860 Si  0  0  0  0  0  4  0  0  0  0  0  0
    4.1144    5.5676    8.1123 Si  0  0  0  0  0  4  0  0  0  0  0  0
    2.7513    1.5327    7.7734 Si  0  0  0  0  0  4  0  0  0  0  0  0
    1.8194    6.7239    4.2725 H   0  0  0  0  0  0  0  0  0  0  0  0
    3.5546    5.1023    4.5872 H   0  0  0  0  0  0  0  0  0  0  0  0
    1.2409    4.7000    7.8046 H   0  0  0  0  0  0  0  0  0  0  0  0
    1.5308    7.0238    7.4970 H   0  0  0  0  0  0  0  0  0  0  0  0
    3.1167    1.8205    9.1869 H   0  0  0  0  0  0  0  0  0  0  0  0
    1.4985    2.2998    7.5343 H   0  0  0  0  0  0  0  0  0  0  0  0
    5.4142    4.0272    7.2352 Si  0  0  0  0  0  4  0  0  0  0  0  0
    6.3113    4.5427    6.1930 H   0  0  0  0  0  0  0  0  0  0  0  0
    6.2985    3.4923    8.3089 H   0  0  0  0  0  0  0  0  0  0  0  0
    4.2903    2.3099    6.3904 Si  0  0  0  0  0  4  0  0  0  0  0  0
    5.2673    1.2196    6.1357 H   0  0  0  0  0  0  0  0  0  0  0  0
    3.7281    2.6929    5.0961 H   0  0  0  0  0  0  0  0  0  0  0  0
    4.7847    6.8861    7.9750 H   0  0  0  0  0  0  0  0  0  0  0  0
    3.9449    5.3201    9.5631 H   0  0  0  0  0  0  0  0  0  0  0  0
    2.6855   -1.3318    8.7206 H   0  0  0  0  0  0  0  0  0  0  0  0
    0.8678   -0.8484    7.2922 H   0  0  0  0  0  0  0  0  0  0  0  0
    3.0268   -2.9111    5.6749 H   0  0  0  0  0  0  0  0  0  0  0  0
    4.8688   -1.5000    6.1422 H   0  0  0  0  0  0  0  0  0  0  0  0
    1.1119    2.6889    5.1533 H   0  0  0  0  0  0  0  0  0  0  0  0
   -0.6041    4.3584    4.8259 H   0  0  0  0  0  0  0  0  0  0  0  0
  1  2  1  0
  1  5  1  0
  2  3  1  0
  2  4  1  0
  2 11  1  0
  5  6  1  0
  5  7  1  0
  5  8  1  0
  8  9  1  0
  8 36  1  0
  8 37  1  0
  9 14  1  0
  9 18  1  0
  9 19  1  0
 10 11  1  0
 10 15  1  0
 10 34  1  0
 10 35  1  0
 11 12  1  0
 11 13  1  0
 14 16  1  0
 14 20  1  0
 14 21  1  0
 15 17  1  0
 15 32  1  0
 15 33  1  0
 16 24  1  0
 16 30  1  0
 16 31  1  0
 17 22  1  0
 17 23  1  0
 17 27  1  0
 24 25  1  0
 24 26  1  0
 24 27  1  0
 27 28  1  0
 27 29  1  0
M  CHG  1   1   1
M  RAD  1   1   2
M  END
$$$$

     RDKit          3D

 37 37  0  0  0  0  0  0  0  0999 V2000
    0.9888    1.3896    1.7835 S   0  0  0  0  0  2  0  0  0  0  0  0
    0.4952    3.4621    1.9651 Si  0  0  0  0  0  4  0  0  0  0  0  0
   -0.6068    3.8336    1.0463 H   0  0  0  0  0  0  0  0  0  0  0  0
    0.0129    3.7885    3.3252 H   0  0  0  0  0  0  0  0  0  0  0  0
    1.0991    0.4179    3.6800 Si  0  0  0  0  0  4  0  0  0  0  0  0
    0.5863   -0.9617    3.5013 H   0  0  0  0  0  0  0  0  0  0  0  0
    0.3232    1.0957    4.7045 H   0  0  0  0  0  0  0  0  0  0  0  0
    3.2586    0.2024    4.2840 Si  0  0  0  0  0  4  0  0  0  0  0  0
    3.4656   -0.7769    6.2427 Si  0  0  0  0  0  4  0  0  0  0  0  0
    2.6917    6.1471    3.1368 Si  0  0  0  0  0  4  0  0  0  0  0  0
    2.2442    4.7367    1.4463 Si  0  0  0  0  0  4  0  0  0  0  0  0
    2.0555    5.4541    0.1860 H   0  0  0  0  0  0  0  0  0  0  0  0
    3.4318    3.8531    1.3221 H   0  0  0  0  0  0  0  0  0  0  0  0
    3.5950    0.6140    7.9416 Si  0  0  0  0  0  4  0  0  0  0  0  0
    3.6429    4.9395    4.7694 Si  0  0  0  0  0  4  0  0  0  0  0  0
    4.9463    2.3273    7.5765 Si  0  0  0  0  0  4  0  0  0  0  0  0
    2.0307    4.1370    6.0879 Si  0  0  0  0  0  4  0  0  0  0  0  0
    2.2943   -1.6649    6.4520 H   0  0  0  0  0  0  0  0  0  0  0  0
    4.6713   -1.6347    6.2418 H   0  0  0  0  0  0  0  0  0  0  0  0
    4.1326   -0.1394    9.1118 H   0  0  0  0  0  0  0  0  0  0  0  0
    2.2454    1.0699    8.3671 H   0  0  0  0  0  0  0  0  0  0  0  0
    0.6935    4.5499    5.6092 H   0  0  0  0  0  0  0  0  0  0  0  0
    2.1285    2.6691    6.1623 H   0  0  0  0  0  0  0  0  0  0  0  0
    4.3524    4.0772    8.8578 Si  0  0  0  0  0  4  0  0  0  0  0  0
    4.2715    3.7005   10.2689 H   0  0  0  0  0  0  0  0  0  0  0  0
    5.3474    5.1414    8.7208 H   0  0  0  0  0  0  0  0  0  0  0  0
    2.3904    4.9105    8.1651 Si  0  0  0  0  0  4  0  0  0  0  0  0
    1.3031    4.4390    9.0472 H   0  0  0  0  0  0  0  0  0  0  0  0
    2.4260    6.3836    8.1081 H   0  0  0  0  0  0  0  0  0  0  0  0
    6.3590    2.0096    7.8986 H   0  0  0  0  0  0  0  0  0  0  0  0
    4.8684    2.7483    6.1945 H   0  0  0  0  0  0  0  0  0  0  0  0
    4.6138    5.7380    5.5306 H   0  0  0  0  0  0  0  0  0  0  0  0
    4.4011    3.8572    4.1178 H   0  0  0  0  0  0  0  0  0  0  0  0
    1.4727    6.7698    3.6470 H   0  0  0  0  0  0  0  0  0  0  0  0
    3.6589    7.1590    2.7124 H   0  0  0  0  0  0  0  0  0  0  0  0
    3.9656    1.4784    4.1807 H   0  0  0  0  0  0  0  0  0  0  0  0
    3.8682   -0.6940    3.2589 H   0  0  0  0  0  0  0  0  0  0  0  0
  1  2  1  0
  1  5  1  0
  2  3  1  0
  2  4  1  0
  2 11  1  0
  5  6  1  0
  5  7  1  0
  5  8  1  0
  8  9  1  0
  8 36  1  0
  8 37  1  0
  9 14  1  0
  9 18  1  0
  9 19  1  0
 10 11  1  0
 10 15  1  0
 10 34  1  0
 10 35  1  0
 11 12  1  0
 11 13  1  0
 14 16  1  0
 14 20  1  0
 14 21  1  0
 15 17  1  0
 15 32  1  0
 15 33  1  0
 16 24  1  0
 16 30  1  0
 16 31  1  0
 17 22  1  0
 17 23  1  0
 17 27  1  0
 24 25  1  0
 24 26  1  0
 24 27  1  0
 27 28  1  0
 27 29  1  0
M  CHG  1   1   1
M  RAD  1   1   2
M  END
$$$$

     RDKit          3D

 37 37  0  0  0  0  0  0  0  0999 V2000
    0.9888    1.3896    1.7835 S   0  0  0  0  0  2  0  0  0  0  0  0
   -0.6840    1.9765    3.0308 Si  0  0  0  0  0  4  0  0  0  0  0  0
   -1.2355    3.2124    2.4663 H   0  0  0  0  0  0  0  0  0  0  0  0
   -1.6961    0.9140    3.0078 H   0  0  0  0  0  0  0  0  0  0  0  0
    2.0582   -0.1348    2.8377 Si  0  0  0  0  0  4  0  0  0  0  0  0
    2.3381   -1.2254    1.8801 H   0  0  0  0  0  0  0  0  0  0  0  0
    1.2190   -0.7427    3.9048 H   0  0  0  0  0  0  0  0  0  0  0  0
    3.9100    0.6165    3.7729 Si  0  0  0  0  0  4  0  0  0  0  0  0
    4.2012    2.7934    3.5021 Si  0  0  0  0  0  4  0  0  0  0  0  0
   -1.1300    1.3350    6.6359 Si  0  0  0  0  0  4  0  0  0  0  0  0
    0.0556    2.3978    5.0717 Si  0  0  0  0  0  4  0  0  0  0  0  0
    1.4420    1.9917    5.2011 H   0  0  0  0  0  0  0  0  0  0  0  0
   -0.0161    3.8426    5.3787 H   0  0  0  0  0  0  0  0  0  0  0  0
    5.0403    3.7519    5.3336 Si  0  0  0  0  0  4  0  0  0  0  0  0
   -0.7397    2.3412    8.6093 Si  0  0  0  0  0  4  0  0  0  0  0  0
    3.6322    3.6372    7.0407 Si  0  0  0  0  0  4  0  0  0  0  0  0
    0.4457    1.0194    9.9557 Si  0  0  0  0  0  4  0  0  0  0  0  0
    5.2070    2.9819    2.4218 H   0  0  0  0  0  0  0  0  0  0  0  0
    2.9966    3.4929    3.0780 H   0  0  0  0  0  0  0  0  0  0  0  0
    6.3288    3.1807    5.6806 H   0  0  0  0  0  0  0  0  0  0  0  0
    5.2487    5.1834    5.0166 H   0  0  0  0  0  0  0  0  0  0  0  0
   -0.0006    1.0958   11.3460 H   0  0  0  0  0  0  0  0  0  0  0  0
    0.3720   -0.3741    9.4789 H   0  0  0  0  0  0  0  0  0  0  0  0
    3.4029    1.5838    7.8239 Si  0  0  0  0  0  4  0  0  0  0  0  0
    4.6649    0.8245    7.7917 H   0  0  0  0  0  0  0  0  0  0  0  0
    2.4297    0.7881    7.0277 H   0  0  0  0  0  0  0  0  0  0  0  0
    2.6004    1.6414    9.9176 Si  0  0  0  0  0  4  0  0  0  0  0  0
    3.3937    0.7452   10.7476 H   0  0  0  0  0  0  0  0  0  0  0  0
    2.6677    2.9954   10.4683 H   0  0  0  0  0  0  0  0  0  0  0  0
    4.1642    4.4888    8.1247 H   0  0  0  0  0  0  0  0  0  0  0  0
    2.3237    4.1764    6.6783 H   0  0  0  0  0  0  0  0  0  0  0  0
    0.0332    3.5883    8.4140 H   0  0  0  0  0  0  0  0  0  0  0  0
   -2.0161    2.7507    9.2378 H   0  0  0  0  0  0  0  0  0  0  0  0
   -2.5531    1.4112    6.2771 H   0  0  0  0  0  0  0  0  0  0  0  0
   -0.6636   -0.0558    6.7182 H   0  0  0  0  0  0  0  0  0  0  0  0
    3.9609    0.3358    5.2359 H   0  0  0  0  0  0  0  0  0  0  0  0
    5.0621   -0.1349    3.1997 H   0  0  0  0  0  0  0  0  0  0  0  0
  1  2  1  0
  1  5  1  0
  2  3  1  0
  2  4  1  0
  2 11  1  0
  5  6  1  0
  5  7  1  0
  5  8  1  0
  8  9  1  0
  8 36  1  0
  8 37  1  0
  9 14  1  0
  9 18  1  0
  9 19  1  0
 10 11  1  0
 10 15  1  0
 10 34  1  0
 10 35  1  0
 11 12  1  0
 11 13  1  0
 14 16  1  0
 14 20  1  0
 14 21  1  0
 15 17  1  0
 15 32  1  0
 15 33  1  0
 16 24  1  0
 16 30  1  0
 16 31  1  0
 17 22  1  0
 17 23  1  0
 17 27  1  0
 24 25  1  0
 24 26  1  0
 24 27  1  0
 27 28  1  0
 27 29  1  0
M  CHG  1   1   1
M  RAD  1   1   2
M  END
$$$$

     RDKit          3D

 37 37  0  0  0  0  0  0  0  0999 V2000
    0.9888    1.3896    1.7835 S   0  0  0  0  0  2  0  0  0  0  0  0
    1.4216    3.4469    1.3939 Si  0  0  0  0  0  4  0  0  0  0  0  0
    0.7727    3.9040    0.1422 H   0  0  0  0  0  0  0  0  0  0  0  0
    0.8969    4.3245    2.4632 H   0  0  0  0  0  0  0  0  0  0  0  0
    0.3281    1.0702    3.7872 Si  0  0  0  0  0  4  0  0  0  0  0  0
   -0.6927   -0.0044    3.7509 H   0  0  0  0  0  0  0  0  0  0  0  0
   -0.2438    2.2636    4.3871 H   0  0  0  0  0  0  0  0  0  0  0  0
    2.0343    0.2621    5.0160 Si  0  0  0  0  0  4  0  0  0  0  0  0
    1.4448   -0.0810    7.1072 Si  0  0  0  0  0  4  0  0  0  0  0  0
    4.3209    5.3429    2.5799 Si  0  0  0  0  0  4  0  0  0  0  0  0
    3.6119    3.7591    1.1529 Si  0  0  0  0  0  4  0  0  0  0  0  0
    3.9802    4.0771   -0.2262 H   0  0  0  0  0  0  0  0  0  0  0  0
    4.2984    2.5049    1.5557 H   0  0  0  0  0  0  0  0  0  0  0  0
    1.8629    1.6063    8.4547 Si  0  0  0  0  0  4  0  0  0  0  0  0
    4.3469    4.4242    4.6254 Si  0  0  0  0  0  4  0  0  0  0  0  0
    3.8654    2.4977    8.1551 Si  0  0  0  0  0  4  0  0  0  0  0  0
    2.3410    4.7179    5.5592 Si  0  0  0  0  0  4  0  0  0  0  0  0
   -0.0125   -0.3621    7.1462 H   0  0  0  0  0  0  0  0  0  0  0  0
    2.1367   -1.2819    7.6255 H   0  0  0  0  0  0  0  0  0  0  0  0
    1.8030    1.0998    9.8568 H   0  0  0  0  0  0  0  0  0  0  0  0
    0.7940    2.6365    8.3739 H   0  0  0  0  0  0  0  0  0  0  0  0
    1.4245    5.4318    4.6437 H   0  0  0  0  0  0  0  0  0  0  0  0
    1.7762    3.4157    5.9530 H   0  0  0  0  0  0  0  0  0  0  0  0
    3.8748    4.6422    8.8315 Si  0  0  0  0  0  4  0  0  0  0  0  0
    3.3899    4.7691   10.2057 H   0  0  0  0  0  0  0  0  0  0  0  0
    5.2402    5.1653    8.7741 H   0  0  0  0  0  0  0  0  0  0  0  0
    2.6271    5.8924    7.4516 Si  0  0  0  0  0  4  0  0  0  0  0  0
    1.3059    6.1495    8.0606 H   0  0  0  0  0  0  0  0  0  0  0  0
    3.3090    7.1548    7.1112 H   0  0  0  0  0  0  0  0  0  0  0  0
    4.9177    1.7918    8.9263 H   0  0  0  0  0  0  0  0  0  0  0  0
    4.2243    2.4776    6.7536 H   0  0  0  0  0  0  0  0  0  0  0  0
    5.4166    4.9951    5.4557 H   0  0  0  0  0  0  0  0  0  0  0  0
    4.6613    2.9954    4.4511 H   0  0  0  0  0  0  0  0  0  0  0  0
    3.4248    6.4966    2.5822 H   0  0  0  0  0  0  0  0  0  0  0  0
    5.6898    5.7434    2.2559 H   0  0  0  0  0  0  0  0  0  0  0  0
    3.2316    1.0883    4.8648 H   0  0  0  0  0  0  0  0  0  0  0  0
    2.3645   -1.0615    4.4120 H   0  0  0  0  0  0  0  0  0  0  0  0
  1  2  1  0
  1  5  1  0
  2  3  1  0
  2  4  1  0
  2 11  1  0
  5  6  1  0
  5  7  1  0
  5  8  1  0
  8  9  1  0
  8 36  1  0
  8 37  1  0
  9 14  1  0
  9 18  1  0
  9 19  1  0
 10 11  1  0
 10 15  1  0
 10 34  1  0
 10 35  1  0
 11 12  1  0
 11 13  1  0
 14 16  1  0
 14 20  1  0
 14 21  1  0
 15 17  1  0
 15 32  1  0
 15 33  1  0
 16 24  1  0
 16 30  1  0
 16 31  1  0
 17 22  1  0
 17 23  1  0
 17 27  1  0
 24 25  1  0
 24 26  1  0
 24 27  1  0
 27 28  1  0
 27 29  1  0
M  CHG  1   1   1
M  RAD  1   1   2
M  END
$$$$

     RDKit          3D

 37 37  0  0  0  0  0  0  0  0999 V2000
    0.9888    1.3896    1.7835 S   0  0  0  0  0  2  0  0  0  0  0  0
    0.7147    3.5061    1.7859 Si  0  0  0  0  0  4  0  0  0  0  0  0
   -0.7275    3.8335    1.7520 H   0  0  0  0  0  0  0  0  0  0  0  0
    1.3593    4.0776    0.6049 H   0  0  0  0  0  0  0  0  0  0  0  0
    1.6436    0.7476    3.7000 Si  0  0  0  0  0  4  0  0  0  0  0  0
    2.6442   -0.3208    3.6149 H   0  0  0  0  0  0  0  0  0  0  0  0
    2.1982    1.8378    4.5078 H   0  0  0  0  0  0  0  0  0  0  0  0
   -0.1293   -0.0573    4.8223 Si  0  0  0  0  0  4  0  0  0  0  0  0
    0.6123   -0.6614    6.8535 Si  0  0  0  0  0  4  0  0  0  0  0  0
   -0.0132    4.5188    5.2175 Si  0  0  0  0  0  4  0  0  0  0  0  0
    1.5632    4.4471    3.6299 Si  0  0  0  0  0  4  0  0  0  0  0  0
    1.9349    5.8465    3.3197 H   0  0  0  0  0  0  0  0  0  0  0  0
    2.7619    3.7567    4.0958 H   0  0  0  0  0  0  0  0  0  0  0  0
   -1.0353   -0.2653    8.3118 Si  0  0  0  0  0  4  0  0  0  0  0  0
    0.3534    6.1678    6.6558 Si  0  0  0  0  0  4  0  0  0  0  0  0
   -0.1156    0.5289   10.1812 Si  0  0  0  0  0  4  0  0  0  0  0  0
    1.6500    5.5402    8.3438 Si  0  0  0  0  0  4  0  0  0  0  0  0
    1.7897    0.1698    7.2101 H   0  0  0  0  0  0  0  0  0  0  0  0
    1.0447   -2.0534    6.8735 H   0  0  0  0  0  0  0  0  0  0  0  0
   -1.6809   -1.5619    8.6099 H   0  0  0  0  0  0  0  0  0  0  0  0
   -2.0099    0.6998    7.7574 H   0  0  0  0  0  0  0  0  0  0  0  0
    1.1444    6.1241    9.6013 H   0  0  0  0  0  0  0  0  0  0  0  0
    3.0070    6.0352    8.0861 H   0  0  0  0  0  0  0  0  0  0  0  0
    0.1683    2.7322   10.0784 Si  0  0  0  0  0  4  0  0  0  0  0  0
    0.6456    3.1849   11.3953 H   0  0  0  0  0  0  0  0  0  0  0  0
   -1.1226    3.3578    9.7540 H   0  0  0  0  0  0  0  0  0  0  0  0
    1.6908    3.3108    8.5678 Si  0  0  0  0  0  4  0  0  0  0  0  0
    3.0153    2.9121    9.0750 H   0  0  0  0  0  0  0  0  0  0  0  0
    1.4759    2.6751    7.2714 H   0  0  0  0  0  0  0  0  0  0  0  0
    1.1725   -0.1393   10.4281 H   0  0  0  0  0  0  0  0  0  0  0  0
   -1.0155    0.2367   11.2939 H   0  0  0  0  0  0  0  0  0  0  0  0
   -0.9395    6.6882    7.1375 H   0  0  0  0  0  0  0  0  0  0  0  0
    0.9927    7.2800    5.9034 H   0  0  0  0  0  0  0  0  0  0  0  0
   -1.3070    4.7271    4.5338 H   0  0  0  0  0  0  0  0  0  0  0  0
   -0.0115    3.2464    5.9301 H   0  0  0  0  0  0  0  0  0  0  0  0
   -1.1368    1.0130    4.9230 H   0  0  0  0  0  0  0  0  0  0  0  0
   -0.6361   -1.2459    4.1600 H   0  0  0  0  0  0  0  0  0  0  0  0
  1  2  1  0
  1  5  1  0
  2  3  1  0
  2  4  1  0
  2 11  1  0
  5  6  1  0
  5  7  1  0
  5  8  1  0
  8  9  1  0
  8 36  1  0
  8 37  1  0
  9 14  1  0
  9 18  1  0
  9 19  1  0
 10 11  1  0
 10 15  1  0
 10 34  1  0
 10 35  1  0
 11 12  1  0
 11 13  1  0
 14 16  1  0
 14 20  1  0
 14 21  1  0
 15 17  1  0
 15 32  1  0
 15 33  1  0
 16 24  1  0
 16 30  1  0
 16 31  1  0
 17 22  1  0
 17 23  1  0
 17 27  1  0
 24 25  1  0
 24 26  1  0
 24 27  1  0
 27 28  1  0
 27 29  1  0
M  CHG  1   1   1
M  RAD  1   1   2
M  END
$$$$

     RDKit          3D

 37 37  0  0  0  0  0  0  0  0999 V2000
    0.9888    1.3896    1.7835 S   0  0  0  0  0  2  0  0  0  0  0  0
    2.9260    2.1908    2.0780 Si  0  0  0  0  0  4  0  0  0  0  0  0
    3.3597    2.1656    3.4811 H   0  0  0  0  0  0  0  0  0  0  0  0
    3.8981    1.3392    1.3351 H   0  0  0  0  0  0  0  0  0  0  0  0
   -0.2271    1.4468    3.5197 Si  0  0  0  0  0  4  0  0  0  0  0  0
   -1.6231    1.7413    3.0855 H   0  0  0  0  0  0  0  0  0  0  0  0
    0.1409    2.5039    4.4585 H   0  0  0  0  0  0  0  0  0  0  0  0
   -0.1666   -0.4917    4.6467 Si  0  0  0  0  0  4  0  0  0  0  0  0
    1.1920   -0.3230    6.4274 Si  0  0  0  0  0  4  0  0  0  0  0  0
    2.2866    5.7003    2.7978 Si  0  0  0  0  0  4  0  0  0  0  0  0
    3.1407    4.2597    1.3164 Si  0  0  0  0  0  4  0  0  0  0  0  0
    2.4679    4.3653    0.0253 H   0  0  0  0  0  0  0  0  0  0  0  0
    4.5825    4.5710    1.1840 H   0  0  0  0  0  0  0  0  0  0  0  0
    3.3094   -0.1561    5.8333 Si  0  0  0  0  0  4  0  0  0  0  0  0
    2.4218    4.8592    4.8386 Si  0  0  0  0  0  4  0  0  0  0  0  0
    4.2932    1.6472    6.7556 Si  0  0  0  0  0  4  0  0  0  0  0  0
    4.2196    5.5080    5.9325 Si  0  0  0  0  0  4  0  0  0  0  0  0
    0.7425    0.7765    7.2732 H   0  0  0  0  0  0  0  0  0  0  0  0
    1.0126   -1.5722    7.2056 H   0  0  0  0  0  0  0  0  0  0  0  0
    4.0861   -1.3447    6.2866 H   0  0  0  0  0  0  0  0  0  0  0  0
    3.4248   -0.1259    4.3746 H   0  0  0  0  0  0  0  0  0  0  0  0
    4.0357    5.2373    7.3613 H   0  0  0  0  0  0  0  0  0  0  0  0
    4.3933    6.9569    5.7422 H   0  0  0  0  0  0  0  0  0  0  0  0
    6.0271    2.3168    5.5397 Si  0  0  0  0  0  4  0  0  0  0  0  0
    7.3131    1.8843    6.1450 H   0  0  0  0  0  0  0  0  0  0  0  0
    5.9498    1.6149    4.2340 H   0  0  0  0  0  0  0  0  0  0  0  0
    6.0640    4.4982    5.2251 Si  0  0  0  0  0  4  0  0  0  0  0  0
    6.2190    4.7903    3.7836 H   0  0  0  0  0  0  0  0  0  0  0  0
    7.2086    5.0931    5.9610 H   0  0  0  0  0  0  0  0  0  0  0  0
    4.7479    1.2330    8.1058 H   0  0  0  0  0  0  0  0  0  0  0  0
    3.3566    2.7613    6.8718 H   0  0  0  0  0  0  0  0  0  0  0  0
    2.3677    3.3908    4.7766 H   0  0  0  0  0  0  0  0  0  0  0  0
    1.2180    5.2860    5.5933 H   0  0  0  0  0  0  0  0  0  0  0  0
    2.9383    7.0025    2.6897 H   0  0  0  0  0  0  0  0  0  0  0  0
    0.8610    5.8993    2.4203 H   0  0  0  0  0  0  0  0  0  0  0  0
    0.2058   -1.6065    3.8004 H   0  0  0  0  0  0  0  0  0  0  0  0
   -1.5361   -0.6978    5.1918 H   0  0  0  0  0  0  0  0  0  0  0  0
  1  2  1  0
  1  5  1  0
  2  3  1  0
  2  4  1  0
  2 11  1  0
  5  6  1  0
  5  7  1  0
  5  8  1  0
  8  9  1  0
  8 36  1  0
  8 37  1  0
  9 14  1  0
  9 18  1  0
  9 19  1  0
 10 11  1  0
 10 15  1  0
 10 34  1  0
 10 35  1  0
 11 12  1  0
 11 13  1  0
 14 16  1  0
 14 20  1  0
 14 21  1  0
 15 17  1  0
 15 32  1  0
 15 33  1  0
 16 24  1  0
 16 30  1  0
 16 31  1  0
 17 22  1  0
 17 23  1  0
 17 27  1  0
 24 25  1  0
 24 26  1  0
 24 27  1  0
 27 28  1  0
 27 29  1  0
M  CHG  1   1   1
M  RAD  1   1   2
M  END
$$$$

     RDKit          3D

 37 37  0  0  0  0  0  0  0  0999 V2000
    0.9888    1.3896    1.7835 S   0  0  0  0  0  2  0  0  0  0  0  0
    3.0144    1.7770    2.2608 Si  0  0  0  0  0  4  0  0  0  0  0  0
    3.2629    1.8827    3.7047 H   0  0  0  0  0  0  0  0  0  0  0  0
    3.8312    0.6224    1.7897 H   0  0  0  0  0  0  0  0  0  0  0  0
   -0.3707    1.9947    3.2940 Si  0  0  0  0  0  4  0  0  0  0  0  0
   -1.5935    2.5182    2.6197 H   0  0  0  0  0  0  0  0  0  0  0  0
    0.1305    3.0808    4.1329 H   0  0  0  0  0  0  0  0  0  0  0  0
   -0.9128    0.2990    4.6586 Si  0  0  0  0  0  4  0  0  0  0  0  0
    0.2294    0.4464    6.5870 Si  0  0  0  0  0  4  0  0  0  0  0  0
    3.1645    5.4099    2.4154 Si  0  0  0  0  0  4  0  0  0  0  0  0
    3.8109    3.5960    1.2790 Si  0  0  0  0  0  4  0  0  0  0  0  0
    3.3386    3.6388   -0.1015 H   0  0  0  0  0  0  0  0  0  0  0  0
    5.2905    3.5535    1.3266 H   0  0  0  0  0  0  0  0  0  0  0  0
    2.3786    0.0406    6.3028 Si  0  0  0  0  0  4  0  0  0  0  0  0
    2.8536    4.9000    4.5448 Si  0  0  0  0  0  4  0  0  0  0  0  0
    3.6554    1.7048    7.1217 Si  0  0  0  0  0  4  0  0  0  0  0  0
    4.6151    5.3008    5.8042 Si  0  0  0  0  0  4  0  0  0  0  0  0
   -0.0358    1.7399    7.2057 H   0  0  0  0  0  0  0  0  0  0  0  0
   -0.3364   -0.5894    7.4843 H   0  0  0  0  0  0  0  0  0  0  0  0
    2.7862   -1.2018    7.0182 H   0  0  0  0  0  0  0  0  0  0  0  0
    2.6668   -0.1911    4.8867 H   0  0  0  0  0  0  0  0  0  0  0  0
    4.2061    5.3118    7.2117 H   0  0  0  0  0  0  0  0  0  0  0  0
    5.1553    6.6247    5.4563 H   0  0  0  0  0  0  0  0  0  0  0  0
    5.6292    1.7673    6.1052 Si  0  0  0  0  0  4  0  0  0  0  0  0
    6.6928    1.1632    6.9485 H   0  0  0  0  0  0  0  0  0  0  0  0
    5.5368    0.8990    4.9048 H   0  0  0  0  0  0  0  0  0  0  0  0
    6.2295    3.8060    5.5200 Si  0  0  0  0  0  4  0  0  0  0  0  0
    6.6173    3.8199    4.0929 H   0  0  0  0  0  0  0  0  0  0  0  0
    7.3904    4.2423    6.3371 H   0  0  0  0  0  0  0  0  0  0  0  0
    3.8360    1.4232    8.5673 H   0  0  0  0  0  0  0  0  0  0  0  0
    3.0094    3.0029    6.9500 H   0  0  0  0  0  0  0  0  0  0  0  0
    2.4532    3.4901    4.6659 H   0  0  0  0  0  0  0  0  0  0  0  0
    1.7095    5.6996    5.0475 H   0  0  0  0  0  0  0  0  0  0  0  0
    4.1201    6.4997    2.2392 H   0  0  0  0  0  0  0  0  0  0  0  0
    1.8835    5.8570    1.8045 H   0  0  0  0  0  0  0  0  0  0  0  0
   -0.7256   -0.9922    4.0298 H   0  0  0  0  0  0  0  0  0  0  0  0
   -2.3454    0.4931    5.0129 H   0  0  0  0  0  0  0  0  0  0  0  0
  1  2  1  0
  1  5  1  0
  2  3  1  0
  2  4  1  0
  2 11  1  0
  5  6  1  0
  5  7  1  0
  5  8  1  0
  8  9  1  0
  8 36  1  0
  8 37  1  0
  9 14  1  0
  9 18  1  0
  9 19  1  0
 10 11  1  0
 10 15  1  0
 10 34  1  0
 10 35  1  0
 11 12  1  0
 11 13  1  0
 14 16  1  0
 14 20  1  0
 14 21  1  0
 15 17  1  0
 15 32  1  0
 15 33  1  0
 16 24  1  0
 16 30  1  0
 16 31  1  0
 17 22  1  0
 17 23  1  0
 17 27  1  0
 24 25  1  0
 24 26  1  0
 24 27  1  0
 27 28  1  0
 27 29  1  0
M  CHG  1   1   1
M  RAD  1   1   2
M  END
$$$$

     RDKit          3D

 37 37  0  0  0  0  0  0  0  0999 V2000
    0.9888    1.3896    1.7835 S   0  0  0  0  0  2  0  0  0  0  0  0
    2.7625    2.1326    0.7832 Si  0  0  0  0  0  4  0  0  0  0  0  0
    3.6921    1.0062    0.6515 H   0  0  0  0  0  0  0  0  0  0  0  0
    2.3895    2.6385   -0.5430 H   0  0  0  0  0  0  0  0  0  0  0  0
   -0.1651    3.0932    2.3710 Si  0  0  0  0  0  4  0  0  0  0  0  0
   -1.5692    2.8327    1.9898 H   0  0  0  0  0  0  0  0  0  0  0  0
    0.2391    4.3065    1.6112 H   0  0  0  0  0  0  0  0  0  0  0  0
    0.0192    3.5448    4.5228 Si  0  0  0  0  0  4  0  0  0  0  0  0
    1.4300    2.2042    5.5763 Si  0  0  0  0  0  4  0  0  0  0  0  0
    4.1441    5.5506    0.9068 Si  0  0  0  0  0  4  0  0  0  0  0  0
    3.7031    3.6837    2.0478 Si  0  0  0  0  0  4  0  0  0  0  0  0
    2.8346    4.0264    3.1577 H   0  0  0  0  0  0  0  0  0  0  0  0
    4.9834    3.2076    2.6142 H   0  0  0  0  0  0  0  0  0  0  0  0
    2.6401    3.3025    7.0950 Si  0  0  0  0  0  4  0  0  0  0  0  0
    5.6568    6.7387    2.0729 Si  0  0  0  0  0  4  0  0  0  0  0  0
    3.9724    4.8037    6.1561 Si  0  0  0  0  0  4  0  0  0  0  0  0
    4.7420    8.5918    2.9062 Si  0  0  0  0  0  4  0  0  0  0  0  0
    0.6245    1.1969    6.3185 H   0  0  0  0  0  0  0  0  0  0  0  0
    2.3052    1.4614    4.6805 H   0  0  0  0  0  0  0  0  0  0  0  0
    1.7899    3.9149    8.0995 H   0  0  0  0  0  0  0  0  0  0  0  0
    3.4958    2.3019    7.7730 H   0  0  0  0  0  0  0  0  0  0  0  0
    5.6449    9.7397    2.8348 H   0  0  0  0  0  0  0  0  0  0  0  0
    3.4868    8.8931    2.1932 H   0  0  0  0  0  0  0  0  0  0  0  0
    2.8666    6.5224    5.3163 Si  0  0  0  0  0  4  0  0  0  0  0  0
    1.7080    6.9047    6.1422 H   0  0  0  0  0  0  0  0  0  0  0  0
    2.3214    6.2283    3.9633 H   0  0  0  0  0  0  0  0  0  0  0  0
    4.2403    8.2782    5.0698 Si  0  0  0  0  0  4  0  0  0  0  0  0
    3.5862    9.4633    5.6076 H   0  0  0  0  0  0  0  0  0  0  0  0
    5.5024    8.0604    5.7773 H   0  0  0  0  0  0  0  0  0  0  0  0
    4.8906    5.3090    7.1978 H   0  0  0  0  0  0  0  0  0  0  0  0
    4.7999    4.1941    5.1179 H   0  0  0  0  0  0  0  0  0  0  0  0
    6.1762    5.9466    3.2102 H   0  0  0  0  0  0  0  0  0  0  0  0
    6.8307    7.0473    1.2253 H   0  0  0  0  0  0  0  0  0  0  0  0
    4.6699    5.1788   -0.4142 H   0  0  0  0  0  0  0  0  0  0  0  0
    2.9100    6.3404    0.7983 H   0  0  0  0  0  0  0  0  0  0  0  0
    0.4610    4.9462    4.7726 H   0  0  0  0  0  0  0  0  0  0  0  0
   -1.3354    3.4562    5.1374 H   0  0  0  0  0  0  0  0  0  0  0  0
  1  2  1  0
  1  5  1  0
  2  3  1  0
  2  4  1  0
  2 11  1  0
  5  6  1  0
  5  7  1  0
  5  8  1  0
  8  9  1  0
  8 36  1  0
  8 37  1  0
  9 14  1  0
  9 18  1  0
  9 19  1  0
 10 11  1  0
 10 15  1  0
 10 34  1  0
 10 35  1  0
 11 12  1  0
 11 13  1  0
 14 16  1  0
 14 20  1  0
 14 21  1  0
 15 17  1  0
 15 32  1  0
 15 33  1  0
 16 24  1  0
 16 30  1  0
 16 31  1  0
 17 22  1  0
 17 23  1  0
 17 27  1  0
 24 25  1  0
 24 26  1  0
 24 27  1  0
 27 28  1  0
 27 29  1  0
M  CHG  1   1   1
M  RAD  1   1   2
M  END
$$$$
