
     RDKit          3D

 37 37  0  0  0  0  0  0  0  0999 V2000
   -0.5459    0.3211    2.0849 S   0  0  0  0  0  2  0  0  0  0  0  0
   -1.5389    1.9824    3.0431 Si  0  0  0  0  0  4  0  0  0  0  0  0
   -2.6677    2.3952    2.1728 H   0  0  0  0  0  0  0  0  0  0  0  0
   -0.5407    3.0604    3.1520 H   0  0  0  0  0  0  0  0  0  0  0  0
    1.4492    0.1487    2.9194 Si  0  0  0  0  0  4  0  0  0  0  0  0
    2.0706    1.4709    2.7731 H   0  0  0  0  0  0  0  0  0  0  0  0
    2.1337   -0.8879    2.1527 H   0  0  0  0  0  0  0  0  0  0  0  0
    1.1965   -0.4157    5.0661 Si  0  0  0  0  0  4  0  0  0  0  0  0
    2.9594   -1.5355    5.8327 Si  0  0  0  0  0  4  0  0  0  0  0  0
   -2.2637    3.1186    6.4750 Si  0  0  0  0  0  4  0  0  0  0  0  0
   -2.3693    1.4024    5.0160 Si  0  0  0  0  0  4  0  0  0  0  0  0
   -3.7832    0.9554    4.8625 H   0  0  0  0  0  0  0  0  0  0  0  0
   -1.6449    0.2944    5.6166 H   0  0  0  0  0  0  0  0  0  0  0  0
    2.2411   -3.1482    7.2274 Si  0  0  0  0  0  4  0  0  0  0  0  0
   -1.8800    2.2900    8.5368 Si  0  0  0  0  0  4  0  0  0  0  0  0
   -0.0029   -3.1968    7.2687 Si  0  0  0  0  0  4  0  0  0  0  0  0
    0.2953    1.9381    8.8549 Si  0  0  0  0  0  4  0  0  0  0  0  0
    3.7124   -2.0931    4.7161 H   0  0  0  0  0  0  0  0  0  0  0  0
    3.8015   -0.6157    6.6344 H   0  0  0  0  0  0  0  0  0  0  0  0
    2.6784   -4.4801    6.7449 H   0  0  0  0  0  0  0  0  0  0  0  0
    2.7538   -2.9541    8.5774 H   0  0  0  0  0  0  0  0  0  0  0  0
    0.7439    2.7942    9.9711 H   0  0  0  0  0  0  0  0  0  0  0  0
    1.0166    2.3873    7.6567 H   0  0  0  0  0  0  0  0  0  0  0  0
   -0.8311   -1.5558    8.4970 Si  0  0  0  0  0  4  0  0  0  0  0  0
   -1.5500   -2.1426    9.6582 H   0  0  0  0  0  0  0  0  0  0  0  0
   -1.8292   -0.7486    7.7723 H   0  0  0  0  0  0  0  0  0  0  0  0
    0.7364   -0.2003    9.2853 Si  0  0  0  0  0  4  0  0  0  0  0  0
    2.0552   -0.5376    8.7000 H   0  0  0  0  0  0  0  0  0  0  0  0
    0.9037   -0.3325   10.7520 H   0  0  0  0  0  0  0  0  0  0  0  0
   -0.4227   -4.5195    7.8064 H   0  0  0  0  0  0  0  0  0  0  0  0
   -0.4996   -3.1660    5.8724 H   0  0  0  0  0  0  0  0  0  0  0  0
   -2.6561    1.0407    8.7362 H   0  0  0  0  0  0  0  0  0  0  0  0
   -2.4166    3.2728    9.4875 H   0  0  0  0  0  0  0  0  0  0  0  0
   -1.1622    4.0166    6.1223 H   0  0  0  0  0  0  0  0  0  0  0  0
   -3.5713    3.7914    6.4503 H   0  0  0  0  0  0  0  0  0  0  0  0
    0.9643    0.7957    5.8285 H   0  0  0  0  0  0  0  0  0  0  0  0
    0.0335   -1.3471    5.1184 H   0  0  0  0  0  0  0  0  0  0  0  0
  1  2  1  0
  1  5  1  0
  2  3  1  0
  2  4  1  0
  2 11  1  0
  5  6  1  0
  5  7  1  0
  5  8  1  0
  8  9  1  0
  8 36  1  0
  8 37  1  0
  9 14  1  0
  9 18  1  0
  9 19  1  0
 10 11  1  0
 10 15  1  0
 10 34  1  0
 10 35  1  0
 11 12  1  0
 11 13  1  0
 14 16  1  0
 14 20  1  0
 14 21  1  0
 15 17  1  0
 15 32  1  0
 15 33  1  0
 16 24  1  0
 16 30  1  0
 16 31  1  0
 17 22  1  0
 17 23  1  0
 17 27  1  0
 24 25  1  0
 24 26  1  0
 24 27  1  0
 27 28  1  0
 27 29  1  0
M  CHG  1   1   1
M  RAD  1   1   2
M  END
$$$$
