
     RDKit          3D

 37 37  0  0  0  0  0  0  0  0999 V2000
   -1.3261   -0.2120    1.6078 S   0  0  0  0  0  2  0  0  0  0  0  0
   -2.8653   -1.3777    2.5931 Si  0  0  0  0  0  4  0  0  0  0  0  0
   -2.1473   -2.3489    3.4641 H   0  0  0  0  0  0  0  0  0  0  0  0
   -3.7139   -2.0584    1.6372 H   0  0  0  0  0  0  0  0  0  0  0  0
   -0.2347    0.9001    3.0484 Si  0  0  0  0  0  4  0  0  0  0  0  0
   -0.9998    0.9005    4.3205 H   0  0  0  0  0  0  0  0  0  0  0  0
    1.1176    0.3802    3.2418 H   0  0  0  0  0  0  0  0  0  0  0  0
   -0.0550    3.0650    2.4645 Si  0  0  0  0  0  4  0  0  0  0  0  0
    0.8612    4.1178    4.2298 Si  0  0  0  0  0  4  0  0  0  0  0  0
   -4.1648   -0.8643    6.0071 Si  0  0  0  0  0  4  0  0  0  0  0  0
   -4.0199   -0.0300    3.9572 Si  0  0  0  0  0  4  0  0  0  0  0  0
   -5.3758    0.2185    3.4085 H   0  0  0  0  0  0  0  0  0  0  0  0
   -3.3621    1.2885    4.0271 H   0  0  0  0  0  0  0  0  0  0  0  0
    2.4246    2.8648    5.1492 Si  0  0  0  0  0  4  0  0  0  0  0  0
   -2.5674    0.0904    7.2815 Si  0  0  0  0  0  4  0  0  0  0  0  0
    1.5998    1.4146    6.6305 Si  0  0  0  0  0  4  0  0  0  0  0  0
   -2.5915    2.2608    6.8745 Si  0  0  0  0  0  4  0  0  0  0  0  0
   -0.1577    4.5628    5.1693 H   0  0  0  0  0  0  0  0  0  0  0  0
    1.5147    5.3395    3.6789 H   0  0  0  0  0  0  0  0  0  0  0  0
    3.4917    3.6190    5.7867 H   0  0  0  0  0  0  0  0  0  0  0  0
    3.0588    2.0575    4.0683 H   0  0  0  0  0  0  0  0  0  0  0  0
   -3.9609    2.7644    7.1829 H   0  0  0  0  0  0  0  0  0  0  0  0
   -2.3714    2.5102    5.4548 H   0  0  0  0  0  0  0  0  0  0  0  0
    0.7640    2.3994    8.4102 Si  0  0  0  0  0  4  0  0  0  0  0  0
    0.6216    1.3893    9.4845 H   0  0  0  0  0  0  0  0  0  0  0  0
    1.7487    3.3866    8.9089 H   0  0  0  0  0  0  0  0  0  0  0  0
   -1.1534    3.4016    8.0852 Si  0  0  0  0  0  4  0  0  0  0  0  0
   -0.9473    4.7275    7.4361 H   0  0  0  0  0  0  0  0  0  0  0  0
   -1.7727    3.7004    9.3962 H   0  0  0  0  0  0  0  0  0  0  0  0
    0.6514    0.4862    6.0120 H   0  0  0  0  0  0  0  0  0  0  0  0
    2.7521    0.5778    7.0742 H   0  0  0  0  0  0  0  0  0  0  0  0
   -2.9248   -0.1999    8.6763 H   0  0  0  0  0  0  0  0  0  0  0  0
   -1.3111   -0.5438    6.9326 H   0  0  0  0  0  0  0  0  0  0  0  0
   -5.5084   -0.5021    6.5412 H   0  0  0  0  0  0  0  0  0  0  0  0
   -4.0725   -2.3173    6.0447 H   0  0  0  0  0  0  0  0  0  0  0  0
   -1.4252    3.5883    2.3332 H   0  0  0  0  0  0  0  0  0  0  0  0
    0.7393    3.2350    1.2643 H   0  0  0  0  0  0  0  0  0  0  0  0
  1  2  1  0
  1  5  1  0
  2  3  1  0
  2  4  1  0
  2 11  1  0
  5  6  1  0
  5  7  1  0
  5  8  1  0
  8  9  1  0
  8 36  1  0
  8 37  1  0
  9 14  1  0
  9 18  1  0
  9 19  1  0
 10 11  1  0
 10 15  1  0
 10 34  1  0
 10 35  1  0
 11 12  1  0
 11 13  1  0
 14 16  1  0
 14 20  1  0
 14 21  1  0
 15 17  1  0
 15 32  1  0
 15 33  1  0
 16 24  1  0
 16 30  1  0
 16 31  1  0
 17 22  1  0
 17 23  1  0
 17 27  1  0
 24 25  1  0
 24 26  1  0
 24 27  1  0
 27 28  1  0
 27 29  1  0
M  CHG  1   1   1
M  RAD  1   1   2
M  END
$$$$
