
     RDKit          3D

 37 37  0  0  0  0  0  0  0  0999 V2000
   -0.0248   -0.0384   -3.1405 S   0  0  0  0  0  2  0  0  0  0  0  0
   -1.7608   -0.6535   -4.1803 Si  0  0  0  0  0  4  0  0  0  0  0  0
   -2.8151    0.3741   -4.1103 H   0  0  0  0  0  0  0  0  0  0  0  0
   -2.2911   -1.8669   -3.5414 H   0  0  0  0  0  0  0  0  0  0  0  0
    0.7515    1.8135   -3.8083 Si  0  0  0  0  0  4  0  0  0  0  0  0
    1.0880    2.7037   -2.6665 H   0  0  0  0  0  0  0  0  0  0  0  0
    2.0428    1.5481   -4.5016 H   0  0  0  0  0  0  0  0  0  0  0  0
   -0.6222    2.8962   -5.1698 Si  0  0  0  0  0  4  0  0  0  0  0  0
    0.4621    3.4716   -7.0443 Si  0  0  0  0  0  4  0  0  0  0  0  0
    0.2588   -2.5366   -6.6239 Si  0  0  0  0  0  4  0  0  0  0  0  0
   -1.3861   -1.1029   -6.3187 Si  0  0  0  0  0  4  0  0  0  0  0  0
   -2.6123   -1.6461   -6.9031 H   0  0  0  0  0  0  0  0  0  0  0  0
   -1.0417    0.1594   -7.0028 H   0  0  0  0  0  0  0  0  0  0  0  0
   -1.0015    3.6590   -8.7069 Si  0  0  0  0  0  4  0  0  0  0  0  0
    2.1210   -1.4422   -7.0993 Si  0  0  0  0  0  4  0  0  0  0  0  0
   -0.3818    2.4606  -10.4842 Si  0  0  0  0  0  4  0  0  0  0  0  0
    2.1082   -0.5481   -9.1203 Si  0  0  0  0  0  4  0  0  0  0  0  0
    1.4585    2.4371   -7.3395 H   0  0  0  0  0  0  0  0  0  0  0  0
    1.1878    4.7324   -6.8505 H   0  0  0  0  0  0  0  0  0  0  0  0
   -1.1687    5.0572   -9.1458 H   0  0  0  0  0  0  0  0  0  0  0  0
   -2.3326    3.1606   -8.2853 H   0  0  0  0  0  0  0  0  0  0  0  0
    2.1589    0.9306   -9.0715 H   0  0  0  0  0  0  0  0  0  0  0  0
    3.3671   -0.9616   -9.8048 H   0  0  0  0  0  0  0  0  0  0  0  0
   -1.2275    0.4086  -10.3713 Si  0  0  0  0  0  4  0  0  0  0  0  0
   -2.0863    0.1133  -11.5543 H   0  0  0  0  0  0  0  0  0  0  0  0
   -2.1130    0.3272   -9.2024 H   0  0  0  0  0  0  0  0  0  0  0  0
    0.3660   -1.1477  -10.3302 Si  0  0  0  0  0  4  0  0  0  0  0  0
    0.8235   -1.3325  -11.7371 H   0  0  0  0  0  0  0  0  0  0  0  0
   -0.1861   -2.4160   -9.8418 H   0  0  0  0  0  0  0  0  0  0  0  0
   -0.9252    3.1091  -11.6934 H   0  0  0  0  0  0  0  0  0  0  0  0
    1.0654    2.3773  -10.6242 H   0  0  0  0  0  0  0  0  0  0  0  0
    2.2887   -0.3662   -6.1013 H   0  0  0  0  0  0  0  0  0  0  0  0
    3.2607   -2.3710   -6.9077 H   0  0  0  0  0  0  0  0  0  0  0  0
    0.4872   -3.3745   -5.4559 H   0  0  0  0  0  0  0  0  0  0  0  0
   -0.0466   -3.4377   -7.7619 H   0  0  0  0  0  0  0  0  0  0  0  0
   -1.2562    4.0539   -4.5405 H   0  0  0  0  0  0  0  0  0  0  0  0
   -1.7019    1.9633   -5.5581 H   0  0  0  0  0  0  0  0  0  0  0  0
  1  2  1  0
  1  5  1  0
  2  3  1  0
  2  4  1  0
  2 11  1  0
  5  6  1  0
  5  7  1  0
  5  8  1  0
  8  9  1  0
  8 36  1  0
  8 37  1  0
  9 14  1  0
  9 18  1  0
  9 19  1  0
 10 11  1  0
 10 15  1  0
 10 34  1  0
 10 35  1  0
 11 12  1  0
 11 13  1  0
 14 16  1  0
 14 20  1  0
 14 21  1  0
 15 17  1  0
 15 32  1  0
 15 33  1  0
 16 24  1  0
 16 30  1  0
 16 31  1  0
 17 22  1  0
 17 23  1  0
 17 27  1  0
 24 25  1  0
 24 26  1  0
 24 27  1  0
 27 28  1  0
 27 29  1  0
M  CHG  1   1   1
M  RAD  1   1   2
M  END
$$$$

     RDKit          3D

 37 37  0  0  0  0  0  0  0  0999 V2000
   -0.0248   -0.0384   -3.1405 S   0  0  0  0  0  2  0  0  0  0  0  0
   -0.3160    1.9118   -3.9311 Si  0  0  0  0  0  4  0  0  0  0  0  0
    0.9569    2.6576   -3.8188 H   0  0  0  0  0  0  0  0  0  0  0  0
   -1.2977    2.6364   -3.1133 H   0  0  0  0  0  0  0  0  0  0  0  0
   -0.8143   -1.5631   -4.4202 Si  0  0  0  0  0  4  0  0  0  0  0  0
   -1.8626   -0.9804   -5.2329 H   0  0  0  0  0  0  0  0  0  0  0  0
   -1.4242   -2.6103   -3.5626 H   0  0  0  0  0  0  0  0  0  0  0  0
    0.8051   -2.5088   -5.5937 Si  0  0  0  0  0  4  0  0  0  0  0  0
    0.2549   -2.7508   -7.7438 Si  0  0  0  0  0  4  0  0  0  0  0  0
   -2.9971    2.9407   -6.2401 Si  0  0  0  0  0  4  0  0  0  0  0  0
   -1.0218    1.8950   -6.0305 Si  0  0  0  0  0  4  0  0  0  0  0  0
   -1.1719    0.5487   -6.5760 H   0  0  0  0  0  0  0  0  0  0  0  0
   -0.0580    2.6428   -6.8729 H   0  0  0  0  0  0  0  0  0  0  0  0
    0.8924   -0.9318   -8.8547 Si  0  0  0  0  0  4  0  0  0  0  0  0
   -4.6555    1.5187   -5.8594 Si  0  0  0  0  0  4  0  0  0  0  0  0
   -0.4524   -0.4542  -10.5380 Si  0  0  0  0  0  4  0  0  0  0  0  0
   -5.2148    0.3903   -7.7069 Si  0  0  0  0  0  4  0  0  0  0  0  0
   -1.1744   -3.0363   -7.9109 H   0  0  0  0  0  0  0  0  0  0  0  0
    0.9756   -3.9437   -8.2745 H   0  0  0  0  0  0  0  0  0  0  0  0
    2.2431   -1.2180   -9.4178 H   0  0  0  0  0  0  0  0  0  0  0  0
    1.0777    0.1934   -7.9249 H   0  0  0  0  0  0  0  0  0  0  0  0
   -6.2233   -0.6243   -7.2943 H   0  0  0  0  0  0  0  0  0  0  0  0
   -5.8533    1.2587   -8.6930 H   0  0  0  0  0  0  0  0  0  0  0  0
   -2.2713    0.6491   -9.8951 Si  0  0  0  0  0  4  0  0  0  0  0  0
   -3.0863    0.9068  -11.0976 H   0  0  0  0  0  0  0  0  0  0  0  0
   -1.9706    1.9125   -9.2392 H   0  0  0  0  0  0  0  0  0  0  0  0
   -3.4870   -0.6877   -8.5674 Si  0  0  0  0  0  4  0  0  0  0  0  0
   -2.6188   -1.1628   -7.5038 H   0  0  0  0  0  0  0  0  0  0  0  0
   -3.9147   -1.8555   -9.3625 H   0  0  0  0  0  0  0  0  0  0  0  0
    0.2883    0.4173  -11.4850 H   0  0  0  0  0  0  0  0  0  0  0  0
   -0.8714   -1.6950  -11.1820 H   0  0  0  0  0  0  0  0  0  0  0  0
   -5.8814    2.2221   -5.4036 H   0  0  0  0  0  0  0  0  0  0  0  0
   -4.2296    0.5673   -4.8376 H   0  0  0  0  0  0  0  0  0  0  0  0
   -3.0577    4.1280   -5.3829 H   0  0  0  0  0  0  0  0  0  0  0  0
   -3.1151    3.4088   -7.6379 H   0  0  0  0  0  0  0  0  0  0  0  0
    1.1606   -3.8485   -5.0647 H   0  0  0  0  0  0  0  0  0  0  0  0
    2.0125   -1.6824   -5.4690 H   0  0  0  0  0  0  0  0  0  0  0  0
  1  2  1  0
  1  5  1  0
  2  3  1  0
  2  4  1  0
  2 11  1  0
  5  6  1  0
  5  7  1  0
  5  8  1  0
  8  9  1  0
  8 36  1  0
  8 37  1  0
  9 14  1  0
  9 18  1  0
  9 19  1  0
 10 11  1  0
 10 15  1  0
 10 34  1  0
 10 35  1  0
 11 12  1  0
 11 13  1  0
 14 16  1  0
 14 20  1  0
 14 21  1  0
 15 17  1  0
 15 32  1  0
 15 33  1  0
 16 24  1  0
 16 30  1  0
 16 31  1  0
 17 22  1  0
 17 23  1  0
 17 27  1  0
 24 25  1  0
 24 26  1  0
 24 27  1  0
 27 28  1  0
 27 29  1  0
M  CHG  1   1   1
M  RAD  1   1   2
M  END
$$$$
