
     RDKit          3D

 37 37  0  0  0  0  0  0  0  0999 V2000
    0.5323    0.4969    2.1285 S   0  0  0  0  0  2  0  0  0  0  0  0
    0.2160    2.0929    3.4459 Si  0  0  0  0  0  4  0  0  0  0  0  0
   -1.2317    2.2018    3.7853 H   0  0  0  0  0  0  0  0  0  0  0  0
    0.5316    3.3624    2.7264 H   0  0  0  0  0  0  0  0  0  0  0  0
    0.6590   -1.4119    2.9680 Si  0  0  0  0  0  4  0  0  0  0  0  0
   -0.1642   -2.3583    2.1603 H   0  0  0  0  0  0  0  0  0  0  0  0
    2.0559   -1.9159    2.8341 H   0  0  0  0  0  0  0  0  0  0  0  0
    0.0020   -1.5542    5.0728 Si  0  0  0  0  0  4  0  0  0  0  0  0
    1.5325   -2.6724    6.2572 Si  0  0  0  0  0  4  0  0  0  0  0  0
    2.4598    4.0384    5.6260 Si  0  0  0  0  0  4  0  0  0  0  0  0
    1.4693    2.0416    5.2683 Si  0  0  0  0  0  4  0  0  0  0  0  0
    2.4712    0.9773    5.2304 H   0  0  0  0  0  0  0  0  0  0  0  0
    0.5576    1.8680    6.4364 H   0  0  0  0  0  0  0  0  0  0  0  0
    1.0771   -2.5997    8.4411 Si  0  0  0  0  0  4  0  0  0  0  0  0
    3.4625    3.9430    7.6164 Si  0  0  0  0  0  4  0  0  0  0  0  0
    0.8333   -0.5186    9.1691 Si  0  0  0  0  0  4  0  0  0  0  0  0
    1.9563    3.9575    9.2493 Si  0  0  0  0  0  4  0  0  0  0  0  0
    2.8832   -2.2259    5.9675 H   0  0  0  0  0  0  0  0  0  0  0  0
    1.4452   -4.1015    5.8499 H   0  0  0  0  0  0  0  0  0  0  0  0
    2.1752   -3.2706    9.1437 H   0  0  0  0  0  0  0  0  0  0  0  0
   -0.1518   -3.3553    8.7131 H   0  0  0  0  0  0  0  0  0  0  0  0
    0.5946    3.8092    8.7254 H   0  0  0  0  0  0  0  0  0  0  0  0
    2.0214    5.2450    9.9885 H   0  0  0  0  0  0  0  0  0  0  0  0
    2.7959    0.3959    9.7095 Si  0  0  0  0  0  4  0  0  0  0  0  0
    3.6519    0.5945    8.5485 H   0  0  0  0  0  0  0  0  0  0  0  0
    3.4976   -0.4714   10.6505 H   0  0  0  0  0  0  0  0  0  0  0  0
    2.3737    2.3372   10.7527 Si  0  0  0  0  0  4  0  0  0  0  0  0
    3.4860    2.7114   11.6313 H   0  0  0  0  0  0  0  0  0  0  0  0
    1.1648    2.1230   11.5696 H   0  0  0  0  0  0  0  0  0  0  0  0
    0.0067   -0.5483   10.3986 H   0  0  0  0  0  0  0  0  0  0  0  0
    0.1258    0.2920    8.1941 H   0  0  0  0  0  0  0  0  0  0  0  0
    4.3361    2.7808    7.7208 H   0  0  0  0  0  0  0  0  0  0  0  0
    4.3279    5.1444    7.7306 H   0  0  0  0  0  0  0  0  0  0  0  0
    3.3691    4.3805    4.5525 H   0  0  0  0  0  0  0  0  0  0  0  0
    1.3427    5.0167    5.7557 H   0  0  0  0  0  0  0  0  0  0  0  0
   -1.2643   -2.3353    5.1820 H   0  0  0  0  0  0  0  0  0  0  0  0
   -0.2873   -0.2392    5.6580 H   0  0  0  0  0  0  0  0  0  0  0  0
  1  2  1  0
  1  5  1  0
  2  3  1  0
  2  4  1  0
  2 11  1  0
  5  6  1  0
  5  7  1  0
  5  8  1  0
  8  9  1  0
  8 36  1  0
  8 37  1  0
  9 14  1  0
  9 18  1  0
  9 19  1  0
 10 11  1  0
 10 15  1  0
 10 34  1  0
 10 35  1  0
 11 12  1  0
 11 13  1  0
 14 16  1  0
 14 20  1  0
 14 21  1  0
 15 17  1  0
 15 32  1  0
 15 33  1  0
 16 24  1  0
 16 30  1  0
 16 31  1  0
 17 22  1  0
 17 23  1  0
 17 27  1  0
 24 25  1  0
 24 26  1  0
 24 27  1  0
 27 28  1  0
 27 29  1  0
M  CHG  1   1   1
M  RAD  1   1   2
M  END
$$$$

     RDKit          3D

 37 37  0  0  0  0  0  0  0  0999 V2000
    0.5323    0.4969    2.1285 S   0  0  0  0  0  2  0  0  0  0  0  0
    0.3317    2.1275    3.4262 Si  0  0  0  0  0  4  0  0  0  0  0  0
   -1.1088    2.3828    3.7139 H   0  0  0  0  0  0  0  0  0  0  0  0
    0.7972    3.3531    2.7121 H   0  0  0  0  0  0  0  0  0  0  0  0
    0.4386   -1.4079    2.9812 Si  0  0  0  0  0  4  0  0  0  0  0  0
   -0.4466   -2.2743    2.1496 H   0  0  0  0  0  0  0  0  0  0  0  0
    1.7820   -2.0498    2.8990 H   0  0  0  0  0  0  0  0  0  0  0  0
   -0.3016   -1.4665    5.0623 Si  0  0  0  0  0  4  0  0  0  0  0  0
    1.0677   -2.7217    6.3052 Si  0  0  0  0  0  4  0  0  0  0  0  0
    2.6820    3.8577    5.6745 Si  0  0  0  0  0  4  0  0  0  0  0  0
    1.5099    1.9667    5.2918 Si  0  0  0  0  0  4  0  0  0  0  0  0
    2.4012    0.8076    5.2943 H   0  0  0  0  0  0  0  0  0  0  0  0
    0.5457    1.8946    6.4279 H   0  0  0  0  0  0  0  0  0  0  0  0
    0.5468   -2.5858    8.4713 Si  0  0  0  0  0  4  0  0  0  0  0  0
    3.6008    3.6794    7.6993 Si  0  0  0  0  0  4  0  0  0  0  0  0
    0.4871   -0.4848    9.1802 Si  0  0  0  0  0  4  0  0  0  0  0  0
    2.0481    3.8577    9.2781 Si  0  0  0  0  0  4  0  0  0  0  0  0
    2.4655   -2.4145    6.0611 H   0  0  0  0  0  0  0  0  0  0  0  0
    0.8522   -4.1384    5.9020 H   0  0  0  0  0  0  0  0  0  0  0  0
    1.5474   -3.3569    9.2154 H   0  0  0  0  0  0  0  0  0  0  0  0
   -0.7601   -3.2128    8.7036 H   0  0  0  0  0  0  0  0  0  0  0  0
    0.6973    3.8415    8.7073 H   0  0  0  0  0  0  0  0  0  0  0  0
    2.2160    5.1383   10.0129 H   0  0  0  0  0  0  0  0  0  0  0  0
    2.5114    0.2340    9.7848 Si  0  0  0  0  0  4  0  0  0  0  0  0
    3.4225    0.3367    8.6537 H   0  0  0  0  0  0  0  0  0  0  0  0
    3.0900   -0.6910   10.7542 H   0  0  0  0  0  0  0  0  0  0  0  0
    2.2494    2.2165   10.8031 Si  0  0  0  0  0  4  0  0  0  0  0  0
    3.3626    2.4852   11.7184 H   0  0  0  0  0  0  0  0  0  0  0  0
    0.9976    2.1306   11.5780 H   0  0  0  0  0  0  0  0  0  0  0  0
   -0.3803   -0.4217   10.3799 H   0  0  0  0  0  0  0  0  0  0  0  0
   -0.1019    0.3841    8.1769 H   0  0  0  0  0  0  0  0  0  0  0  0
    4.3498    2.4369    7.8401 H   0  0  0  0  0  0  0  0  0  0  0  0
    4.5774    4.7896    7.8380 H   0  0  0  0  0  0  0  0  0  0  0  0
    3.6575    4.0985    4.6320 H   0  0  0  0  0  0  0  0  0  0  0  0
    1.6644    4.9435    5.7600 H   0  0  0  0  0  0  0  0  0  0  0  0
   -1.6426   -2.1166    5.1306 H   0  0  0  0  0  0  0  0  0  0  0  0
   -0.4781   -0.1244    5.6305 H   0  0  0  0  0  0  0  0  0  0  0  0
  1  2  1  0
  1  5  1  0
  2  3  1  0
  2  4  1  0
  2 11  1  0
  5  6  1  0
  5  7  1  0
  5  8  1  0
  8  9  1  0
  8 36  1  0
  8 37  1  0
  9 14  1  0
  9 18  1  0
  9 19  1  0
 10 11  1  0
 10 15  1  0
 10 34  1  0
 10 35  1  0
 11 12  1  0
 11 13  1  0
 14 16  1  0
 14 20  1  0
 14 21  1  0
 15 17  1  0
 15 32  1  0
 15 33  1  0
 16 24  1  0
 16 30  1  0
 16 31  1  0
 17 22  1  0
 17 23  1  0
 17 27  1  0
 24 25  1  0
 24 26  1  0
 24 27  1  0
 27 28  1  0
 27 29  1  0
M  CHG  1   1   1
M  RAD  1   1   2
M  END
$$$$
