
     RDKit          3D

 37 37  0  0  0  0  0  0  0  0999 V2000
   -1.0480   -0.7007    3.2812 S   0  0  0  0  0  2  0  0  0  0  0  0
   -2.7702   -0.8140    4.5871 Si  0  0  0  0  0  4  0  0  0  0  0  0
   -2.3542   -0.5612    5.9602 H   0  0  0  0  0  0  0  0  0  0  0  0
   -3.6553    0.3164    4.1862 H   0  0  0  0  0  0  0  0  0  0  0  0
    0.5429   -1.9208    4.0139 Si  0  0  0  0  0  4  0  0  0  0  0  0
    1.8398   -1.3368    3.6055 H   0  0  0  0  0  0  0  0  0  0  0  0
    0.4397   -3.2612    3.3864 H   0  0  0  0  0  0  0  0  0  0  0  0
    0.4665   -2.1832    6.2127 Si  0  0  0  0  0  4  0  0  0  0  0  0
    0.4478   -4.3467    6.7914 Si  0  0  0  0  0  4  0  0  0  0  0  0
   -3.8250   -3.9797    6.1571 Si  0  0  0  0  0  4  0  0  0  0  0  0
   -3.8521   -2.7231    4.3253 Si  0  0  0  0  0  4  0  0  0  0  0  0
   -3.2982   -3.4735    3.1765 H   0  0  0  0  0  0  0  0  0  0  0  0
   -5.2714   -2.4586    3.9890 H   0  0  0  0  0  0  0  0  0  0  0  0
    2.3229   -4.9597    7.7649 Si  0  0  0  0  0  4  0  0  0  0  0  0
   -3.7482   -2.7522    8.0022 Si  0  0  0  0  0  4  0  0  0  0  0  0
    2.1660   -5.2244    9.9371 Si  0  0  0  0  0  4  0  0  0  0  0  0
   -3.1924   -4.0374    9.7336 Si  0  0  0  0  0  4  0  0  0  0  0  0
    0.2704   -5.1151    5.5251 H   0  0  0  0  0  0  0  0  0  0  0  0
   -0.7443   -4.6417    7.6046 H   0  0  0  0  0  0  0  0  0  0  0  0
    3.3508   -3.9157    7.4904 H   0  0  0  0  0  0  0  0  0  0  0  0
    2.8490   -6.1929    7.1158 H   0  0  0  0  0  0  0  0  0  0  0  0
   -3.2435   -5.4656    9.3572 H   0  0  0  0  0  0  0  0  0  0  0  0
   -4.1241   -3.8105   10.8320 H   0  0  0  0  0  0  0  0  0  0  0  0
    0.0671   -5.3897   10.6544 Si  0  0  0  0  0  4  0  0  0  0  0  0
   -0.6181   -6.5643   10.0961 H   0  0  0  0  0  0  0  0  0  0  0  0
    0.1347   -5.6208   12.1261 H   0  0  0  0  0  0  0  0  0  0  0  0
   -1.0814   -3.5249   10.3305 Si  0  0  0  0  0  4  0  0  0  0  0  0
   -1.1902   -2.7328   11.5885 H   0  0  0  0  0  0  0  0  0  0  0  0
   -0.4676   -2.6600    9.3413 H   0  0  0  0  0  0  0  0  0  0  0  0
    2.8122   -4.1276   10.6648 H   0  0  0  0  0  0  0  0  0  0  0  0
    2.8615   -6.4730   10.3195 H   0  0  0  0  0  0  0  0  0  0  0  0
   -5.1027   -2.1938    8.2268 H   0  0  0  0  0  0  0  0  0  0  0  0
   -2.8330   -1.6239    7.9053 H   0  0  0  0  0  0  0  0  0  0  0  0
   -5.0715   -4.7957    6.2205 H   0  0  0  0  0  0  0  0  0  0  0  0
   -2.7173   -4.9269    6.0547 H   0  0  0  0  0  0  0  0  0  0  0  0
    1.6750   -1.5868    6.8154 H   0  0  0  0  0  0  0  0  0  0  0  0
   -0.6983   -1.4700    6.7400 H   0  0  0  0  0  0  0  0  0  0  0  0
  1  2  1  0
  1  5  1  0
  2  3  1  0
  2  4  1  0
  2 11  1  0
  5  6  1  0
  5  7  1  0
  5  8  1  0
  8  9  1  0
  8 36  1  0
  8 37  1  0
  9 14  1  0
  9 18  1  0
  9 19  1  0
 10 11  1  0
 10 15  1  0
 10 34  1  0
 10 35  1  0
 11 12  1  0
 11 13  1  0
 14 16  1  0
 14 20  1  0
 14 21  1  0
 15 17  1  0
 15 32  1  0
 15 33  1  0
 16 24  1  0
 16 30  1  0
 16 31  1  0
 17 22  1  0
 17 23  1  0
 17 27  1  0
 24 25  1  0
 24 26  1  0
 24 27  1  0
 27 28  1  0
 27 29  1  0
M  CHG  1   1   1
M  RAD  1   1   2
M  END
$$$$

     RDKit          3D

 37 37  0  0  0  0  0  0  0  0999 V2000
   -1.0480   -0.7007    3.2812 S   0  0  0  0  0  2  0  0  0  0  0  0
   -2.9970    0.1681    3.6818 Si  0  0  0  0  0  4  0  0  0  0  0  0
   -2.7753    1.6137    3.8297 H   0  0  0  0  0  0  0  0  0  0  0  0
   -3.8851   -0.1136    2.5717 H   0  0  0  0  0  0  0  0  0  0  0  0
   -1.2664   -2.7641    2.8607 Si  0  0  0  0  0  4  0  0  0  0  0  0
   -2.7104   -3.0839    2.6739 H   0  0  0  0  0  0  0  0  0  0  0  0
   -0.6406   -3.0304    1.5352 H   0  0  0  0  0  0  0  0  0  0  0  0
   -0.4544   -4.0899    4.4064 Si  0  0  0  0  0  4  0  0  0  0  0  0
    1.0875   -3.1578    5.6785 Si  0  0  0  0  0  4  0  0  0  0  0  0
   -5.6325    0.1358    6.2807 Si  0  0  0  0  0  4  0  0  0  0  0  0
   -3.7047   -0.7230    5.5733 Si  0  0  0  0  0  4  0  0  0  0  0  0
   -2.7154   -0.3774    6.6340 H   0  0  0  0  0  0  0  0  0  0  0  0
   -3.8512   -2.1580    5.4318 H   0  0  0  0  0  0  0  0  0  0  0  0
    0.2255   -1.7682    7.1910 Si  0  0  0  0  0  4  0  0  0  0  0  0
   -5.7785   -0.4619    8.4518 Si  0  0  0  0  0  4  0  0  0  0  0  0
   -1.3181   -2.8046    8.3823 Si  0  0  0  0  0  4  0  0  0  0  0  0
   -4.6020    0.9304    9.7198 Si  0  0  0  0  0  4  0  0  0  0  0  0
    1.7767   -4.2455    6.4274 H   0  0  0  0  0  0  0  0  0  0  0  0
    2.1210   -2.4864    4.8762 H   0  0  0  0  0  0  0  0  0  0  0  0
   -0.3340   -0.6098    6.4467 H   0  0  0  0  0  0  0  0  0  0  0  0
    1.3206   -1.2497    8.0060 H   0  0  0  0  0  0  0  0  0  0  0  0
   -5.0859    0.8453   11.1038 H   0  0  0  0  0  0  0  0  0  0  0  0
   -4.7919    2.2887    9.2075 H   0  0  0  0  0  0  0  0  0  0  0  0
   -2.0040   -1.6559   10.1287 Si  0  0  0  0  0  4  0  0  0  0  0  0
   -3.2356   -2.2891   10.6539 H   0  0  0  0  0  0  0  0  0  0  0  0
   -0.9928   -1.7982   11.2080 H   0  0  0  0  0  0  0  0  0  0  0  0
   -2.4309    0.4629    9.6915 Si  0  0  0  0  0  4  0  0  0  0  0  0
   -1.7986    1.2872   10.7626 H   0  0  0  0  0  0  0  0  0  0  0  0
   -1.7943    0.9244    8.4284 H   0  0  0  0  0  0  0  0  0  0  0  0
   -0.7793   -4.0913    8.8358 H   0  0  0  0  0  0  0  0  0  0  0  0
   -2.4695   -3.0970    7.5188 H   0  0  0  0  0  0  0  0  0  0  0  0
   -7.1806   -0.5346    8.8679 H   0  0  0  0  0  0  0  0  0  0  0  0
   -5.2056   -1.8187    8.6364 H   0  0  0  0  0  0  0  0  0  0  0  0
   -5.6339    1.6029    6.2511 H   0  0  0  0  0  0  0  0  0  0  0  0
   -6.7819   -0.4092    5.5750 H   0  0  0  0  0  0  0  0  0  0  0  0
    0.1633   -5.2720    3.7389 H   0  0  0  0  0  0  0  0  0  0  0  0
   -1.5111   -4.6469    5.2839 H   0  0  0  0  0  0  0  0  0  0  0  0
  1  2  1  0
  1  5  1  0
  2  3  1  0
  2  4  1  0
  2 11  1  0
  5  6  1  0
  5  7  1  0
  5  8  1  0
  8  9  1  0
  8 36  1  0
  8 37  1  0
  9 14  1  0
  9 18  1  0
  9 19  1  0
 10 11  1  0
 10 15  1  0
 10 34  1  0
 10 35  1  0
 11 12  1  0
 11 13  1  0
 14 16  1  0
 14 20  1  0
 14 21  1  0
 15 17  1  0
 15 32  1  0
 15 33  1  0
 16 24  1  0
 16 30  1  0
 16 31  1  0
 17 22  1  0
 17 23  1  0
 17 27  1  0
 24 25  1  0
 24 26  1  0
 24 27  1  0
 27 28  1  0
 27 29  1  0
M  CHG  1   1   1
M  RAD  1   1   2
M  END
$$$$

     RDKit          3D

 37 37  0  0  0  0  0  0  0  0999 V2000
   -1.0480   -0.7007    3.2812 S   0  0  0  0  0  2  0  0  0  0  0  0
   -1.5859   -2.6694    2.6603 Si  0  0  0  0  0  4  0  0  0  0  0  0
   -3.0419   -2.6980    2.4152 H   0  0  0  0  0  0  0  0  0  0  0  0
   -0.8994   -3.0560    1.4076 H   0  0  0  0  0  0  0  0  0  0  0  0
    0.2669   -0.7114    4.9586 Si  0  0  0  0  0  4  0  0  0  0  0  0
    1.2367    0.4103    4.9105 H   0  0  0  0  0  0  0  0  0  0  0  0
    1.0441   -1.9656    4.9314 H   0  0  0  0  0  0  0  0  0  0  0  0
   -0.8233   -0.5959    6.8778 Si  0  0  0  0  0  4  0  0  0  0  0  0
   -2.7105    0.6169    6.6840 Si  0  0  0  0  0  4  0  0  0  0  0  0
   -2.7534   -5.6599    4.4483 Si  0  0  0  0  0  4  0  0  0  0  0  0
   -1.1230   -4.1846    4.2431 Si  0  0  0  0  0  4  0  0  0  0  0  0
    0.1131   -4.9142    3.8405 H   0  0  0  0  0  0  0  0  0  0  0  0
   -0.8672   -3.5485    5.5213 H   0  0  0  0  0  0  0  0  0  0  0  0
   -4.2417   -0.5527    5.5570 Si  0  0  0  0  0  4  0  0  0  0  0  0
   -4.3057   -4.9827    5.9284 Si  0  0  0  0  0  4  0  0  0  0  0  0
   -6.1462   -0.7206    6.6506 Si  0  0  0  0  0  4  0  0  0  0  0  0
   -3.3941   -4.6653    7.9168 Si  0  0  0  0  0  4  0  0  0  0  0  0
   -3.2171    0.9300    8.0144 H   0  0  0  0  0  0  0  0  0  0  0  0
   -2.3647    1.8681    6.0160 H   0  0  0  0  0  0  0  0  0  0  0  0
   -4.5020    0.1947    4.2923 H   0  0  0  0  0  0  0  0  0  0  0  0
   -3.6721   -1.8341    5.1710 H   0  0  0  0  0  0  0  0  0  0  0  0
   -1.9103   -4.6245    7.7924 H   0  0  0  0  0  0  0  0  0  0  0  0
   -3.6746   -5.8756    8.7411 H   0  0  0  0  0  0  0  0  0  0  0  0
   -6.1567   -2.2409    8.2324 Si  0  0  0  0  0  4  0  0  0  0  0  0
   -6.8999   -3.4649    7.8202 H   0  0  0  0  0  0  0  0  0  0  0  0
   -6.9258   -1.7018    9.3914 H   0  0  0  0  0  0  0  0  0  0  0  0
   -4.1641   -2.8462    8.9321 Si  0  0  0  0  0  4  0  0  0  0  0  0
   -3.2413   -1.7090    8.8278 H   0  0  0  0  0  0  0  0  0  0  0  0
   -4.2448   -3.1721   10.3864 H   0  0  0  0  0  0  0  0  0  0  0  0
   -7.2362   -1.0392    5.6844 H   0  0  0  0  0  0  0  0  0  0  0  0
   -6.4879    0.6127    7.1994 H   0  0  0  0  0  0  0  0  0  0  0  0
   -5.3139   -6.0806    5.9817 H   0  0  0  0  0  0  0  0  0  0  0  0
   -5.0260   -3.8014    5.4305 H   0  0  0  0  0  0  0  0  0  0  0  0
   -2.2592   -6.9646    4.9172 H   0  0  0  0  0  0  0  0  0  0  0  0
   -3.3834   -5.8537    3.1440 H   0  0  0  0  0  0  0  0  0  0  0  0
   -0.0328   -0.0687    7.9736 H   0  0  0  0  0  0  0  0  0  0  0  0
   -1.2622   -1.9623    7.2783 H   0  0  0  0  0  0  0  0  0  0  0  0
  1  2  1  0
  1  5  1  0
  2  3  1  0
  2  4  1  0
  2 11  1  0
  5  6  1  0
  5  7  1  0
  5  8  1  0
  8  9  1  0
  8 36  1  0
  8 37  1  0
  9 14  1  0
  9 18  1  0
  9 19  1  0
 10 11  1  0
 10 15  1  0
 10 34  1  0
 10 35  1  0
 11 12  1  0
 11 13  1  0
 14 16  1  0
 14 20  1  0
 14 21  1  0
 15 17  1  0
 15 32  1  0
 15 33  1  0
 16 24  1  0
 16 30  1  0
 16 31  1  0
 17 22  1  0
 17 23  1  0
 17 27  1  0
 24 25  1  0
 24 26  1  0
 24 27  1  0
 27 28  1  0
 27 29  1  0
M  CHG  1   1   1
M  RAD  1   1   2
M  END
$$$$

     RDKit          3D

 37 37  0  0  0  0  0  0  0  0999 V2000
   -1.0480   -0.7007    3.2812 S   0  0  0  0  0  2  0  0  0  0  0  0
   -1.2553    0.6660    4.9220 Si  0  0  0  0  0  4  0  0  0  0  0  0
    0.0182    1.2947    5.2235 H   0  0  0  0  0  0  0  0  0  0  0  0
   -1.6725   -0.1491    6.1002 H   0  0  0  0  0  0  0  0  0  0  0  0
   -0.2926   -2.5541    4.0799 Si  0  0  0  0  0  4  0  0  0  0  0  0
    0.6611   -3.1547    3.1672 H   0  0  0  0  0  0  0  0  0  0  0  0
    0.3544   -2.3112    5.3798 H   0  0  0  0  0  0  0  0  0  0  0  0
   -1.9730   -3.9949    4.4426 Si  0  0  0  0  0  4  0  0  0  0  0  0
   -3.4243   -3.1848    5.9146 Si  0  0  0  0  0  4  0  0  0  0  0  0
   -2.8637    3.5988    6.2692 Si  0  0  0  0  0  4  0  0  0  0  0  0
   -2.8846    2.1386    4.5503 Si  0  0  0  0  0  4  0  0  0  0  0  0
   -2.7000    2.8371    3.2721 H   0  0  0  0  0  0  0  0  0  0  0  0
   -4.1655    1.3971    4.5840 H   0  0  0  0  0  0  0  0  0  0  0  0
   -2.8241   -3.6247    8.0121 Si  0  0  0  0  0  4  0  0  0  0  0  0
   -0.8364    3.7250    7.1532 Si  0  0  0  0  0  4  0  0  0  0  0  0
   -1.8560   -1.8689    8.9619 Si  0  0  0  0  0  4  0  0  0  0  0  0
   -0.4798    2.2100    8.7159 Si  0  0  0  0  0  4  0  0  0  0  0  0
   -4.7254   -3.8531    5.6708 H   0  0  0  0  0  0  0  0  0  0  0  0
   -3.5393   -1.7312    5.7461 H   0  0  0  0  0  0  0  0  0  0  0  0
   -3.9941   -4.0230    8.7990 H   0  0  0  0  0  0  0  0  0  0  0  0
   -1.9091   -4.7822    7.9778 H   0  0  0  0  0  0  0  0  0  0  0  0
    0.1239    0.9826    8.1470 H   0  0  0  0  0  0  0  0  0  0  0  0
    0.5256    2.7569    9.6687 H   0  0  0  0  0  0  0  0  0  0  0  0
   -3.2804   -0.1661    8.9954 Si  0  0  0  0  0  4  0  0  0  0  0  0
   -3.6470    0.1618    7.6087 H   0  0  0  0  0  0  0  0  0  0  0  0
   -4.4526   -0.4448    9.8314 H   0  0  0  0  0  0  0  0  0  0  0  0
   -2.2872    1.6621    9.8458 Si  0  0  0  0  0  4  0  0  0  0  0  0
   -3.2662    2.7424    9.9517 H   0  0  0  0  0  0  0  0  0  0  0  0
   -1.8858    1.3165   11.2358 H   0  0  0  0  0  0  0  0  0  0  0  0
   -1.3951   -2.2309   10.2974 H   0  0  0  0  0  0  0  0  0  0  0  0
   -0.7013   -1.4834    8.1424 H   0  0  0  0  0  0  0  0  0  0  0  0
   -0.5670    5.0997    7.6457 H   0  0  0  0  0  0  0  0  0  0  0  0
    0.1442    3.4914    6.0560 H   0  0  0  0  0  0  0  0  0  0  0  0
   -3.1922    4.9178    5.6867 H   0  0  0  0  0  0  0  0  0  0  0  0
   -3.8835    3.2737    7.2506 H   0  0  0  0  0  0  0  0  0  0  0  0
   -2.6752   -4.2220    3.1802 H   0  0  0  0  0  0  0  0  0  0  0  0
   -1.3702   -5.2242    4.9820 H   0  0  0  0  0  0  0  0  0  0  0  0
  1  2  1  0
  1  5  1  0
  2  3  1  0
  2  4  1  0
  2 11  1  0
  5  6  1  0
  5  7  1  0
  5  8  1  0
  8  9  1  0
  8 36  1  0
  8 37  1  0
  9 14  1  0
  9 18  1  0
  9 19  1  0
 10 11  1  0
 10 15  1  0
 10 34  1  0
 10 35  1  0
 11 12  1  0
 11 13  1  0
 14 16  1  0
 14 20  1  0
 14 21  1  0
 15 17  1  0
 15 32  1  0
 15 33  1  0
 16 24  1  0
 16 30  1  0
 16 31  1  0
 17 22  1  0
 17 23  1  0
 17 27  1  0
 24 25  1  0
 24 26  1  0
 24 27  1  0
 27 28  1  0
 27 29  1  0
M  CHG  1   1   1
M  RAD  1   1   2
M  END
$$$$

     RDKit          3D

 37 37  0  0  0  0  0  0  0  0999 V2000
   -1.0480   -0.7007    3.2812 S   0  0  0  0  0  2  0  0  0  0  0  0
    0.7056   -1.3974    4.3144 Si  0  0  0  0  0  4  0  0  0  0  0  0
    1.8618   -1.0942    3.4231 H   0  0  0  0  0  0  0  0  0  0  0  0
    0.6955   -2.8313    4.5190 H   0  0  0  0  0  0  0  0  0  0  0  0
   -2.3585   -2.2831    2.7652 Si  0  0  0  0  0  4  0  0  0  0  0  0
   -3.1486   -1.8658    1.5858 H   0  0  0  0  0  0  0  0  0  0  0  0
   -1.6791   -3.5271    2.4269 H   0  0  0  0  0  0  0  0  0  0  0  0
   -3.8414   -2.7055    4.4059 Si  0  0  0  0  0  4  0  0  0  0  0  0
   -2.6688   -3.5142    6.1433 Si  0  0  0  0  0  4  0  0  0  0  0  0
    1.6087   -1.4605    7.8911 Si  0  0  0  0  0  4  0  0  0  0  0  0
    0.9105   -0.2452    6.1925 Si  0  0  0  0  0  4  0  0  0  0  0  0
    1.8148    0.9060    5.9407 H   0  0  0  0  0  0  0  0  0  0  0  0
   -0.4037    0.3492    6.5572 H   0  0  0  0  0  0  0  0  0  0  0  0
   -1.4784   -5.2535    5.4004 Si  0  0  0  0  0  4  0  0  0  0  0  0
    2.2544   -3.4934    7.3103 Si  0  0  0  0  0  4  0  0  0  0  0  0
   -1.7150   -7.0092    6.7938 Si  0  0  0  0  0  4  0  0  0  0  0  0
    1.3955   -5.0604    8.6649 Si  0  0  0  0  0  4  0  0  0  0  0  0
   -3.5593   -3.9105    7.2447 H   0  0  0  0  0  0  0  0  0  0  0  0
   -1.7964   -2.4196    6.6059 H   0  0  0  0  0  0  0  0  0  0  0  0
   -0.0479   -4.9585    5.3453 H   0  0  0  0  0  0  0  0  0  0  0  0
   -1.9191   -5.6628    4.0509 H   0  0  0  0  0  0  0  0  0  0  0  0
    1.3689   -6.3728    7.9894 H   0  0  0  0  0  0  0  0  0  0  0  0
    2.2538   -5.1990    9.8649 H   0  0  0  0  0  0  0  0  0  0  0  0
   -2.0729   -6.1954    8.8332 Si  0  0  0  0  0  4  0  0  0  0  0  0
   -1.8872   -7.2947    9.7927 H   0  0  0  0  0  0  0  0  0  0  0  0
   -3.4715   -5.7600    8.9085 H   0  0  0  0  0  0  0  0  0  0  0  0
   -0.6544   -4.5446    9.3202 Si  0  0  0  0  0  4  0  0  0  0  0  0
   -1.0892   -3.2601    8.7398 H   0  0  0  0  0  0  0  0  0  0  0  0
   -0.7097   -4.3553   10.7977 H   0  0  0  0  0  0  0  0  0  0  0  0
   -2.8518   -7.7758    6.3251 H   0  0  0  0  0  0  0  0  0  0  0  0
   -0.4812   -7.8200    6.7484 H   0  0  0  0  0  0  0  0  0  0  0  0
    1.9759   -3.7822    5.9041 H   0  0  0  0  0  0  0  0  0  0  0  0
    3.7343   -3.5734    7.4708 H   0  0  0  0  0  0  0  0  0  0  0  0
    0.5485   -1.6030    8.9291 H   0  0  0  0  0  0  0  0  0  0  0  0
    2.7133   -0.7210    8.5649 H   0  0  0  0  0  0  0  0  0  0  0  0
   -4.7189   -3.7849    3.9342 H   0  0  0  0  0  0  0  0  0  0  0  0
   -4.5806   -1.5050    4.7646 H   0  0  0  0  0  0  0  0  0  0  0  0
  1  2  1  0
  1  5  1  0
  2  3  1  0
  2  4  1  0
  2 11  1  0
  5  6  1  0
  5  7  1  0
  5  8  1  0
  8  9  1  0
  8 36  1  0
  8 37  1  0
  9 14  1  0
  9 18  1  0
  9 19  1  0
 10 11  1  0
 10 15  1  0
 10 34  1  0
 10 35  1  0
 11 12  1  0
 11 13  1  0
 14 16  1  0
 14 20  1  0
 14 21  1  0
 15 17  1  0
 15 32  1  0
 15 33  1  0
 16 24  1  0
 16 30  1  0
 16 31  1  0
 17 22  1  0
 17 23  1  0
 17 27  1  0
 24 25  1  0
 24 26  1  0
 24 27  1  0
 27 28  1  0
 27 29  1  0
M  CHG  1   1   1
M  RAD  1   1   2
M  END
$$$$

     RDKit          3D

 37 37  0  0  0  0  0  0  0  0999 V2000
   -1.0480   -0.7007    3.2812 S   0  0  0  0  0  2  0  0  0  0  0  0
   -1.9967   -1.9080    4.8066 Si  0  0  0  0  0  4  0  0  0  0  0  0
   -2.6617   -1.0387    5.7680 H   0  0  0  0  0  0  0  0  0  0  0  0
   -3.0638   -2.6775    4.1059 H   0  0  0  0  0  0  0  0  0  0  0  0
    0.1658    0.8191    4.1607 Si  0  0  0  0  0  4  0  0  0  0  0  0
    0.2122    1.9939    3.2620 H   0  0  0  0  0  0  0  0  0  0  0  0
    1.5504    0.3028    4.2920 H   0  0  0  0  0  0  0  0  0  0  0  0
   -0.5421    1.4092    6.1757 Si  0  0  0  0  0  4  0  0  0  0  0  0
    1.0764    1.2235    7.7126 Si  0  0  0  0  0  4  0  0  0  0  0  0
   -0.2295   -2.9066    7.8854 Si  0  0  0  0  0  4  0  0  0  0  0  0
   -0.5606   -3.3133    5.7266 Si  0  0  0  0  0  4  0  0  0  0  0  0
    0.7245   -3.2870    4.9934 H   0  0  0  0  0  0  0  0  0  0  0  0
   -1.0651   -4.7022    5.6085 H   0  0  0  0  0  0  0  0  0  0  0  0
    1.7507    3.1849    8.4461 Si  0  0  0  0  0  4  0  0  0  0  0  0
   -2.0294   -2.0434    8.8509 Si  0  0  0  0  0  4  0  0  0  0  0  0
    1.0323    3.6909   10.4562 Si  0  0  0  0  0  4  0  0  0  0  0  0
   -1.4769   -1.1803   10.8278 Si  0  0  0  0  0  4  0  0  0  0  0  0
    2.2113    0.5269    7.0402 H   0  0  0  0  0  0  0  0  0  0  0  0
    0.6440    0.3234    8.7952 H   0  0  0  0  0  0  0  0  0  0  0  0
    1.2664    4.2267    7.4964 H   0  0  0  0  0  0  0  0  0  0  0  0
    3.2364    3.2664    8.3764 H   0  0  0  0  0  0  0  0  0  0  0  0
   -0.1055   -1.5818   11.2044 H   0  0  0  0  0  0  0  0  0  0  0  0
   -2.4010   -1.6608   11.8483 H   0  0  0  0  0  0  0  0  0  0  0  0
    0.2620    1.9352   11.5837 Si  0  0  0  0  0  4  0  0  0  0  0  0
    1.3044    0.9250   11.8155 H   0  0  0  0  0  0  0  0  0  0  0  0
   -0.1293    2.4319   12.9342 H   0  0  0  0  0  0  0  0  0  0  0  0
   -1.5470    1.0645   10.6504 Si  0  0  0  0  0  4  0  0  0  0  0  0
   -2.7829    1.4954   11.3638 H   0  0  0  0  0  0  0  0  0  0  0  0
   -1.7021    1.4617    9.2643 H   0  0  0  0  0  0  0  0  0  0  0  0
   -0.0249    4.7062   10.4143 H   0  0  0  0  0  0  0  0  0  0  0  0
    2.1533    4.2584   11.2374 H   0  0  0  0  0  0  0  0  0  0  0  0
   -3.0006   -3.1441    9.0558 H   0  0  0  0  0  0  0  0  0  0  0  0
   -2.6929   -1.0361    8.0355 H   0  0  0  0  0  0  0  0  0  0  0  0
    0.0818   -4.1828    8.5911 H   0  0  0  0  0  0  0  0  0  0  0  0
    0.9537   -2.0606    8.0228 H   0  0  0  0  0  0  0  0  0  0  0  0
   -0.9514    2.8273    6.1508 H   0  0  0  0  0  0  0  0  0  0  0  0
   -1.7165    0.6078    6.5244 H   0  0  0  0  0  0  0  0  0  0  0  0
  1  2  1  0
  1  5  1  0
  2  3  1  0
  2  4  1  0
  2 11  1  0
  5  6  1  0
  5  7  1  0
  5  8  1  0
  8  9  1  0
  8 36  1  0
  8 37  1  0
  9 14  1  0
  9 18  1  0
  9 19  1  0
 10 11  1  0
 10 15  1  0
 10 34  1  0
 10 35  1  0
 11 12  1  0
 11 13  1  0
 14 16  1  0
 14 20  1  0
 14 21  1  0
 15 17  1  0
 15 32  1  0
 15 33  1  0
 16 24  1  0
 16 30  1  0
 16 31  1  0
 17 22  1  0
 17 23  1  0
 17 27  1  0
 24 25  1  0
 24 26  1  0
 24 27  1  0
 27 28  1  0
 27 29  1  0
M  CHG  1   1   1
M  RAD  1   1   2
M  END
$$$$

     RDKit          3D

 37 37  0  0  0  0  0  0  0  0999 V2000
   -1.0480   -0.7007    3.2812 S   0  0  0  0  0  2  0  0  0  0  0  0
   -1.4584    0.7181    4.8373 Si  0  0  0  0  0  4  0  0  0  0  0  0
   -0.2815    1.5214    5.1159 H   0  0  0  0  0  0  0  0  0  0  0  0
   -1.7897   -0.0762    6.0563 H   0  0  0  0  0  0  0  0  0  0  0  0
   -0.0768   -2.3936    4.1947 Si  0  0  0  0  0  4  0  0  0  0  0  0
    0.9624   -2.9170    3.3291 H   0  0  0  0  0  0  0  0  0  0  0  0
    0.5097   -1.9969    5.4853 H   0  0  0  0  0  0  0  0  0  0  0  0
   -1.5657   -4.0159    4.6220 Si  0  0  0  0  0  4  0  0  0  0  0  0
   -3.1355   -3.3177    6.0282 Si  0  0  0  0  0  4  0  0  0  0  0  0
   -3.4529    3.4908    5.9938 Si  0  0  0  0  0  4  0  0  0  0  0  0
   -3.2554    1.9457    4.3627 Si  0  0  0  0  0  4  0  0  0  0  0  0
   -3.1381    2.5891    3.0481 H   0  0  0  0  0  0  0  0  0  0  0  0
   -4.4314    1.0487    4.4252 H   0  0  0  0  0  0  0  0  0  0  0  0
   -2.5228   -3.5580    8.1542 Si  0  0  0  0  0  4  0  0  0  0  0  0
   -1.4750    3.9263    6.8913 Si  0  0  0  0  0  4  0  0  0  0  0  0
   -1.8046   -1.6416    9.0110 Si  0  0  0  0  0  4  0  0  0  0  0  0
   -0.9566    2.5600    8.5433 Si  0  0  0  0  0  4  0  0  0  0  0  0
   -4.3359   -4.1604    5.8093 H   0  0  0  0  0  0  0  0  0  0  0  0
   -3.4322   -1.9027    5.7742 H   0  0  0  0  0  0  0  0  0  0  0  0
   -3.6466   -4.0585    8.9500 H   0  0  0  0  0  0  0  0  0  0  0  0
   -1.4670   -4.5882    8.1975 H   0  0  0  0  0  0  0  0  0  0  0  0
   -0.1906    1.3904    8.0535 H   0  0  0  0  0  0  0  0  0  0  0  0
   -0.0470    3.2844    9.4738 H   0  0  0  0  0  0  0  0  0  0  0  0
   -3.4353   -0.1370    8.9296 Si  0  0  0  0  0  4  0  0  0  0  0  0
   -3.8152    0.0625    7.5222 H   0  0  0  0  0  0  0  0  0  0  0  0
   -4.5775   -0.5166    9.7674 H   0  0  0  0  0  0  0  0  0  0  0  0
   -2.6996    1.8487    9.6832 Si  0  0  0  0  0  4  0  0  0  0  0  0
   -3.8104    2.7984    9.7152 H   0  0  0  0  0  0  0  0  0  0  0  0
   -2.2831    1.6363   11.0952 H   0  0  0  0  0  0  0  0  0  0  0  0
   -1.3260   -1.8656   10.3702 H   0  0  0  0  0  0  0  0  0  0  0  0
   -0.6938   -1.1575    8.1833 H   0  0  0  0  0  0  0  0  0  0  0  0
   -1.3925    5.3497    7.3060 H   0  0  0  0  0  0  0  0  0  0  0  0
   -0.4525    3.7593    5.8205 H   0  0  0  0  0  0  0  0  0  0  0  0
   -3.9364    4.7217    5.3320 H   0  0  0  0  0  0  0  0  0  0  0  0
   -4.4407    3.0930    6.9811 H   0  0  0  0  0  0  0  0  0  0  0  0
   -2.2098   -4.4021    3.3672 H   0  0  0  0  0  0  0  0  0  0  0  0
   -0.8209   -5.1251    5.2385 H   0  0  0  0  0  0  0  0  0  0  0  0
  1  2  1  0
  1  5  1  0
  2  3  1  0
  2  4  1  0
  2 11  1  0
  5  6  1  0
  5  7  1  0
  5  8  1  0
  8  9  1  0
  8 36  1  0
  8 37  1  0
  9 14  1  0
  9 18  1  0
  9 19  1  0
 10 11  1  0
 10 15  1  0
 10 34  1  0
 10 35  1  0
 11 12  1  0
 11 13  1  0
 14 16  1  0
 14 20  1  0
 14 21  1  0
 15 17  1  0
 15 32  1  0
 15 33  1  0
 16 24  1  0
 16 30  1  0
 16 31  1  0
 17 22  1  0
 17 23  1  0
 17 27  1  0
 24 25  1  0
 24 26  1  0
 24 27  1  0
 27 28  1  0
 27 29  1  0
M  CHG  1   1   1
M  RAD  1   1   2
M  END
$$$$

     RDKit          3D

 37 37  0  0  0  0  0  0  0  0999 V2000
   -1.0480   -0.7007    3.2812 S   0  0  0  0  0  2  0  0  0  0  0  0
   -2.7708   -0.8416    4.5837 Si  0  0  0  0  0  4  0  0  0  0  0  0
   -2.3650   -0.5640    5.9550 H   0  0  0  0  0  0  0  0  0  0  0  0
   -3.6817    0.2627    4.1682 H   0  0  0  0  0  0  0  0  0  0  0  0
    0.5698   -1.8740    4.0313 Si  0  0  0  0  0  4  0  0  0  0  0  0
    1.8534   -1.2631    3.6200 H   0  0  0  0  0  0  0  0  0  0  0  0
    0.5008   -3.2232    3.4181 H   0  0  0  0  0  0  0  0  0  0  0  0
    0.4933   -2.1145    6.2326 Si  0  0  0  0  0  4  0  0  0  0  0  0
    0.5252   -4.2715    6.8347 Si  0  0  0  0  0  4  0  0  0  0  0  0
   -3.7532   -4.0148    6.1851 Si  0  0  0  0  0  4  0  0  0  0  0  0
   -3.8054   -2.7791    4.3397 Si  0  0  0  0  0  4  0  0  0  0  0  0
   -3.2302   -3.5281    3.2005 H   0  0  0  0  0  0  0  0  0  0  0  0
   -5.2297   -2.5527    3.9968 H   0  0  0  0  0  0  0  0  0  0  0  0
    2.4118   -4.8283    7.8197 Si  0  0  0  0  0  4  0  0  0  0  0  0
   -3.7115   -2.7660    8.0170 Si  0  0  0  0  0  4  0  0  0  0  0  0
    2.2550   -5.0734    9.9942 Si  0  0  0  0  0  4  0  0  0  0  0  0
   -3.1299   -4.0187    9.7636 Si  0  0  0  0  0  4  0  0  0  0  0  0
    0.3702   -5.0574    5.5763 H   0  0  0  0  0  0  0  0  0  0  0  0
   -0.6617   -4.5865    7.6478 H   0  0  0  0  0  0  0  0  0  0  0  0
    3.4150   -3.7628    7.5367 H   0  0  0  0  0  0  0  0  0  0  0  0
    2.9695   -6.0553    7.1854 H   0  0  0  0  0  0  0  0  0  0  0  0
   -3.1453   -5.4516    9.4026 H   0  0  0  0  0  0  0  0  0  0  0  0
   -4.0700   -3.8026   10.8570 H   0  0  0  0  0  0  0  0  0  0  0  0
    0.1587   -5.2817   10.7077 Si  0  0  0  0  0  4  0  0  0  0  0  0
   -0.4963   -6.4785   10.1604 H   0  0  0  0  0  0  0  0  0  0  0  0
    0.2276   -5.4952   12.1819 H   0  0  0  0  0  0  0  0  0  0  0  0
   -1.0336   -3.4488   10.3606 Si  0  0  0  0  0  4  0  0  0  0  0  0
   -1.1652   -2.6461   11.6096 H   0  0  0  0  0  0  0  0  0  0  0  0
   -0.4381   -2.5800    9.3637 H   0  0  0  0  0  0  0  0  0  0  0  0
    2.8724   -3.9535   10.7117 H   0  0  0  0  0  0  0  0  0  0  0  0
    2.9794   -6.3005   10.3919 H   0  0  0  0  0  0  0  0  0  0  0  0
   -5.0798   -2.2382    8.2320 H   0  0  0  0  0  0  0  0  0  0  0  0
   -2.8236   -1.6170    7.9103 H   0  0  0  0  0  0  0  0  0  0  0  0
   -4.9798   -4.8600    6.2540 H   0  0  0  0  0  0  0  0  0  0  0  0
   -2.6227   -4.9360    6.0959 H   0  0  0  0  0  0  0  0  0  0  0  0
    1.6853   -1.4826    6.8320 H   0  0  0  0  0  0  0  0  0  0  0  0
   -0.6898   -1.4241    6.7490 H   0  0  0  0  0  0  0  0  0  0  0  0
  1  2  1  0
  1  5  1  0
  2  3  1  0
  2  4  1  0
  2 11  1  0
  5  6  1  0
  5  7  1  0
  5  8  1  0
  8  9  1  0
  8 36  1  0
  8 37  1  0
  9 14  1  0
  9 18  1  0
  9 19  1  0
 10 11  1  0
 10 15  1  0
 10 34  1  0
 10 35  1  0
 11 12  1  0
 11 13  1  0
 14 16  1  0
 14 20  1  0
 14 21  1  0
 15 17  1  0
 15 32  1  0
 15 33  1  0
 16 24  1  0
 16 30  1  0
 16 31  1  0
 17 22  1  0
 17 23  1  0
 17 27  1  0
 24 25  1  0
 24 26  1  0
 24 27  1  0
 27 28  1  0
 27 29  1  0
M  CHG  1   1   1
M  RAD  1   1   2
M  END
$$$$

     RDKit          3D

 37 37  0  0  0  0  0  0  0  0999 V2000
   -1.0480   -0.7007    3.2812 S   0  0  0  0  0  2  0  0  0  0  0  0
   -1.7874    0.1364    5.1351 Si  0  0  0  0  0  4  0  0  0  0  0  0
   -1.8370   -0.9062    6.1514 H   0  0  0  0  0  0  0  0  0  0  0  0
   -0.7569    1.1207    5.5723 H   0  0  0  0  0  0  0  0  0  0  0  0
   -2.1321   -2.4634    2.7576 Si  0  0  0  0  0  4  0  0  0  0  0  0
   -1.2520   -3.3734    1.9913 H   0  0  0  0  0  0  0  0  0  0  0  0
   -3.2588   -2.0810    1.8714 H   0  0  0  0  0  0  0  0  0  0  0  0
   -2.9704   -3.5001    4.5273 Si  0  0  0  0  0  4  0  0  0  0  0  0
   -5.1812   -3.8065    4.3411 Si  0  0  0  0  0  4  0  0  0  0  0  0
   -5.3845    0.2164    5.9436 Si  0  0  0  0  0  4  0  0  0  0  0  0
   -3.7150    1.1748    4.8348 Si  0  0  0  0  0  4  0  0  0  0  0  0
   -4.0339    1.2577    3.3921 H   0  0  0  0  0  0  0  0  0  0  0  0
   -3.6141    2.5761    5.3077 H   0  0  0  0  0  0  0  0  0  0  0  0
   -5.7035   -5.9263    4.0711 Si  0  0  0  0  0  4  0  0  0  0  0  0
   -4.6886   -0.7533    7.8124 Si  0  0  0  0  0  4  0  0  0  0  0  0
   -6.5507   -6.8801    5.8560 Si  0  0  0  0  0  4  0  0  0  0  0  0
   -6.2702   -2.1196    8.5804 Si  0  0  0  0  0  4  0  0  0  0  0  0
   -5.6093   -3.0319    3.1402 H   0  0  0  0  0  0  0  0  0  0  0  0
   -5.8750   -3.1850    5.4820 H   0  0  0  0  0  0  0  0  0  0  0  0
   -4.4667   -6.6633    3.6852 H   0  0  0  0  0  0  0  0  0  0  0  0
   -6.6169   -6.0766    2.9040 H   0  0  0  0  0  0  0  0  0  0  0  0
   -7.5373   -1.9093    7.8496 H   0  0  0  0  0  0  0  0  0  0  0  0
   -6.4989   -1.8582    9.9965 H   0  0  0  0  0  0  0  0  0  0  0  0
   -7.2486   -5.4235    7.3852 Si  0  0  0  0  0  4  0  0  0  0  0  0
   -8.3337   -4.5692    6.8817 H   0  0  0  0  0  0  0  0  0  0  0  0
   -7.8424   -6.2211    8.4965 H   0  0  0  0  0  0  0  0  0  0  0  0
   -5.5847   -4.2383    8.2385 Si  0  0  0  0  0  4  0  0  0  0  0  0
   -5.1798   -4.7606    9.5746 H   0  0  0  0  0  0  0  0  0  0  0  0
   -4.4003   -4.2621    7.4017 H   0  0  0  0  0  0  0  0  0  0  0  0
   -5.5904   -7.7865    6.4936 H   0  0  0  0  0  0  0  0  0  0  0  0
   -7.7204   -7.6928    5.4560 H   0  0  0  0  0  0  0  0  0  0  0  0
   -4.4445    0.3161    8.8092 H   0  0  0  0  0  0  0  0  0  0  0  0
   -3.4371   -1.4800    7.6522 H   0  0  0  0  0  0  0  0  0  0  0  0
   -6.3861    1.2517    6.3291 H   0  0  0  0  0  0  0  0  0  0  0  0
   -6.0716   -0.7062    5.0429 H   0  0  0  0  0  0  0  0  0  0  0  0
   -2.3584   -4.8387    4.6412 H   0  0  0  0  0  0  0  0  0  0  0  0
   -2.6266   -2.7440    5.7327 H   0  0  0  0  0  0  0  0  0  0  0  0
  1  2  1  0
  1  5  1  0
  2  3  1  0
  2  4  1  0
  2 11  1  0
  5  6  1  0
  5  7  1  0
  5  8  1  0
  8  9  1  0
  8 36  1  0
  8 37  1  0
  9 14  1  0
  9 18  1  0
  9 19  1  0
 10 11  1  0
 10 15  1  0
 10 34  1  0
 10 35  1  0
 11 12  1  0
 11 13  1  0
 14 16  1  0
 14 20  1  0
 14 21  1  0
 15 17  1  0
 15 32  1  0
 15 33  1  0
 16 24  1  0
 16 30  1  0
 16 31  1  0
 17 22  1  0
 17 23  1  0
 17 27  1  0
 24 25  1  0
 24 26  1  0
 24 27  1  0
 27 28  1  0
 27 29  1  0
M  CHG  1   1   1
M  RAD  1   1   2
M  END
$$$$

     RDKit          3D

 37 37  0  0  0  0  0  0  0  0999 V2000
   -1.0480   -0.7007    3.2812 S   0  0  0  0  0  2  0  0  0  0  0  0
   -0.3869   -2.6925    3.1794 Si  0  0  0  0  0  4  0  0  0  0  0  0
   -0.4849   -3.1459    1.7613 H   0  0  0  0  0  0  0  0  0  0  0  0
    1.0698   -2.7372    3.4924 H   0  0  0  0  0  0  0  0  0  0  0  0
   -3.1387   -0.4651    3.5402 Si  0  0  0  0  0  4  0  0  0  0  0  0
   -3.4367    0.9806    3.4690 H   0  0  0  0  0  0  0  0  0  0  0  0
   -3.8628   -1.0763    2.3894 H   0  0  0  0  0  0  0  0  0  0  0  0
   -3.8723   -1.2265    5.4799 Si  0  0  0  0  0  4  0  0  0  0  0  0
   -4.5576    0.4283    6.8295 Si  0  0  0  0  0  4  0  0  0  0  0  0
   -0.3389   -4.4551    6.4267 Si  0  0  0  0  0  4  0  0  0  0  0  0
   -1.4118   -4.0853    4.5312 Si  0  0  0  0  0  4  0  0  0  0  0  0
   -2.8376   -3.7601    4.7430 H   0  0  0  0  0  0  0  0  0  0  0  0
   -1.4551   -5.4087    3.8316 H   0  0  0  0  0  0  0  0  0  0  0  0
   -2.9959    1.9942    6.9967 Si  0  0  0  0  0  4  0  0  0  0  0  0
    0.1843   -2.7220    7.6103 Si  0  0  0  0  0  4  0  0  0  0  0  0
   -1.6398    1.6469    8.7225 Si  0  0  0  0  0  4  0  0  0  0  0  0
    0.4827   -0.8442    6.4759 Si  0  0  0  0  0  4  0  0  0  0  0  0
   -4.7561   -0.1774    8.1648 H   0  0  0  0  0  0  0  0  0  0  0  0
   -5.8320    0.9355    6.3479 H   0  0  0  0  0  0  0  0  0  0  0  0
   -2.2715    2.1457    5.7319 H   0  0  0  0  0  0  0  0  0  0  0  0
   -3.6887    3.2890    7.2359 H   0  0  0  0  0  0  0  0  0  0  0  0
    1.2332   -1.0932    5.2396 H   0  0  0  0  0  0  0  0  0  0  0  0
   -0.8147   -0.2372    6.2364 H   0  0  0  0  0  0  0  0  0  0  0  0
    0.4420    2.3735    8.2786 Si  0  0  0  0  0  4  0  0  0  0  0  0
    0.3410    3.2460    7.0864 H   0  0  0  0  0  0  0  0  0  0  0  0
    1.0278    3.0514    9.4211 H   0  0  0  0  0  0  0  0  0  0  0  0
    1.6735    0.5900    7.7154 Si  0  0  0  0  0  4  0  0  0  0  0  0
    2.1899   -0.0705    8.9295 H   0  0  0  0  0  0  0  0  0  0  0  0
    2.8459    1.0828    6.9756 H   0  0  0  0  0  0  0  0  0  0  0  0
   -2.0980    2.4130    9.9122 H   0  0  0  0  0  0  0  0  0  0  0  0
   -1.5958    0.2153    9.0447 H   0  0  0  0  0  0  0  0  0  0  0  0
    1.4348   -2.9797    8.3795 H   0  0  0  0  0  0  0  0  0  0  0  0
   -0.8566   -2.4576    8.6437 H   0  0  0  0  0  0  0  0  0  0  0  0
    0.8869   -5.2407    6.1036 H   0  0  0  0  0  0  0  0  0  0  0  0
   -1.1879   -5.3779    7.2279 H   0  0  0  0  0  0  0  0  0  0  0  0
   -2.7161   -1.8461    6.1856 H   0  0  0  0  0  0  0  0  0  0  0  0
   -4.9455   -2.1857    5.2775 H   0  0  0  0  0  0  0  0  0  0  0  0
  1  2  1  0
  1  5  1  0
  2  3  1  0
  2  4  1  0
  2 11  1  0
  5  6  1  0
  5  7  1  0
  5  8  1  0
  8  9  1  0
  8 36  1  0
  8 37  1  0
  9 14  1  0
  9 18  1  0
  9 19  1  0
 10 11  1  0
 10 15  1  0
 10 34  1  0
 10 35  1  0
 11 12  1  0
 11 13  1  0
 14 16  1  0
 14 20  1  0
 14 21  1  0
 15 17  1  0
 15 32  1  0
 15 33  1  0
 16 24  1  0
 16 30  1  0
 16 31  1  0
 17 22  1  0
 17 23  1  0
 17 27  1  0
 24 25  1  0
 24 26  1  0
 24 27  1  0
 27 28  1  0
 27 29  1  0
M  CHG  1   1   1
M  RAD  1   1   2
M  END
$$$$
