
     RDKit          3D

 37 37  0  0  0  0  0  0  0  0999 V2000
    1.0521    0.2434    2.2297 S   0  0  0  0  0  2  0  0  0  0  0  0
    2.7682    1.3661    2.9305 Si  0  0  0  0  0  4  0  0  0  0  0  0
    3.3443    2.0156    1.7189 H   0  0  0  0  0  0  0  0  0  0  0  0
    2.3767    2.4260    3.8388 H   0  0  0  0  0  0  0  0  0  0  0  0
    0.0136   -0.6092    3.9210 Si  0  0  0  0  0  4  0  0  0  0  0  0
   -1.4402   -0.4711    3.6221 H   0  0  0  0  0  0  0  0  0  0  0  0
    0.2891   -2.0261    4.0686 H   0  0  0  0  0  0  0  0  0  0  0  0
    0.4549    0.5803    5.7214 Si  0  0  0  0  0  4  0  0  0  0  0  0
    1.1037   -0.7222    7.4432 Si  0  0  0  0  0  4  0  0  0  0  0  0
    5.7884    0.9336    4.9925 Si  0  0  0  0  0  4  0  0  0  0  0  0
    4.1991   -0.0716    3.8144 Si  0  0  0  0  0  4  0  0  0  0  0  0
    4.8665   -0.7895    2.6937 H   0  0  0  0  0  0  0  0  0  0  0  0
    3.4819   -1.0917    4.5832 H   0  0  0  0  0  0  0  0  0  0  0  0
    1.6651    0.6803    9.0859 Si  0  0  0  0  0  4  0  0  0  0  0  0
    4.9762    2.2827    6.5394 Si  0  0  0  0  0  4  0  0  0  0  0  0
    2.6685   -0.3583   10.7618 Si  0  0  0  0  0  4  0  0  0  0  0  0
    5.5457    1.5989    8.6072 Si  0  0  0  0  0  4  0  0  0  0  0  0
   -0.0599   -1.5379    7.8624 H   0  0  0  0  0  0  0  0  0  0  0  0
    2.2449   -1.5421    7.0932 H   0  0  0  0  0  0  0  0  0  0  0  0
    2.4183    1.8186    8.5727 H   0  0  0  0  0  0  0  0  0  0  0  0
    0.3838    1.2286    9.6166 H   0  0  0  0  0  0  0  0  0  0  0  0
    6.8473    2.2618    8.9066 H   0  0  0  0  0  0  0  0  0  0  0  0
    4.5819    2.1335    9.5621 H   0  0  0  0  0  0  0  0  0  0  0  0
    4.4139   -1.5494   10.1625 Si  0  0  0  0  0  4  0  0  0  0  0  0
    5.1884   -1.8976   11.3647 H   0  0  0  0  0  0  0  0  0  0  0  0
    3.9309   -2.8429    9.6012 H   0  0  0  0  0  0  0  0  0  0  0  0
    5.7299   -0.5949    8.6977 Si  0  0  0  0  0  4  0  0  0  0  0  0
    7.1457   -0.9394    9.0001 H   0  0  0  0  0  0  0  0  0  0  0  0
    5.4811   -1.1472    7.3358 H   0  0  0  0  0  0  0  0  0  0  0  0
    1.6739   -1.2747   11.3840 H   0  0  0  0  0  0  0  0  0  0  0  0
    2.9858    0.6502   11.7843 H   0  0  0  0  0  0  0  0  0  0  0  0
    3.5160    2.3831    6.5139 H   0  0  0  0  0  0  0  0  0  0  0  0
    5.5083    3.6371    6.3146 H   0  0  0  0  0  0  0  0  0  0  0  0
    6.6189   -0.1163    5.6161 H   0  0  0  0  0  0  0  0  0  0  0  0
    6.6667    1.6574    4.0437 H   0  0  0  0  0  0  0  0  0  0  0  0
   -0.7004    1.3755    6.1838 H   0  0  0  0  0  0  0  0  0  0  0  0
    1.5441    1.5094    5.4601 H   0  0  0  0  0  0  0  0  0  0  0  0
  1  2  1  0
  1  5  1  0
  2  3  1  0
  2  4  1  0
  2 11  1  0
  5  6  1  0
  5  7  1  0
  5  8  1  0
  8  9  1  0
  8 36  1  0
  8 37  1  0
  9 14  1  0
  9 18  1  0
  9 19  1  0
 10 11  1  0
 10 15  1  0
 10 34  1  0
 10 35  1  0
 11 12  1  0
 11 13  1  0
 14 16  1  0
 14 20  1  0
 14 21  1  0
 15 17  1  0
 15 32  1  0
 15 33  1  0
 16 24  1  0
 16 30  1  0
 16 31  1  0
 17 22  1  0
 17 23  1  0
 17 27  1  0
 24 25  1  0
 24 26  1  0
 24 27  1  0
 27 28  1  0
 27 29  1  0
M  CHG  1   1   1
M  RAD  1   1   2
M  END
$$$$

     RDKit          3D

 37 37  0  0  0  0  0  0  0  0999 V2000
    1.0521    0.2434    2.2297 S   0  0  0  0  0  2  0  0  0  0  0  0
    1.5064   -1.7809    2.8009 Si  0  0  0  0  0  4  0  0  0  0  0  0
    2.4420   -2.4075    1.8550 H   0  0  0  0  0  0  0  0  0  0  0  0
    2.1587   -1.7326    4.1274 H   0  0  0  0  0  0  0  0  0  0  0  0
    0.1953    1.2170    3.9467 Si  0  0  0  0  0  4  0  0  0  0  0  0
   -0.4366    2.4803    3.5747 H   0  0  0  0  0  0  0  0  0  0  0  0
   -0.8141    0.3106    4.5300 H   0  0  0  0  0  0  0  0  0  0  0  0
    1.8236    1.6354    5.4315 Si  0  0  0  0  0  4  0  0  0  0  0  0
    1.9329   -0.0109    6.9155 Si  0  0  0  0  0  4  0  0  0  0  0  0
   -0.6619   -3.6614    5.0740 Si  0  0  0  0  0  4  0  0  0  0  0  0
   -0.3933   -2.9330    2.9572 Si  0  0  0  0  0  4  0  0  0  0  0  0
   -0.3216   -4.0836    2.0565 H   0  0  0  0  0  0  0  0  0  0  0  0
   -1.5342   -2.0900    2.5851 H   0  0  0  0  0  0  0  0  0  0  0  0
    0.8597    0.5035    8.7949 Si  0  0  0  0  0  4  0  0  0  0  0  0
    1.2024   -4.6985    5.6704 Si  0  0  0  0  0  4  0  0  0  0  0  0
   -0.6618   -1.0316    9.3191 Si  0  0  0  0  0  4  0  0  0  0  0  0
    1.2646   -5.1628    7.8383 Si  0  0  0  0  0  4  0  0  0  0  0  0
    3.3349   -0.3243    7.2757 H   0  0  0  0  0  0  0  0  0  0  0  0
    1.3471   -1.2684    6.3974 H   0  0  0  0  0  0  0  0  0  0  0  0
    1.7900    0.6177    9.9341 H   0  0  0  0  0  0  0  0  0  0  0  0
    0.2132    1.8170    8.5905 H   0  0  0  0  0  0  0  0  0  0  0  0
   -0.0440   -5.5776    8.3262 H   0  0  0  0  0  0  0  0  0  0  0  0
    2.2119   -6.3000    8.0198 H   0  0  0  0  0  0  0  0  0  0  0  0
    0.3850   -2.7037   10.3800 Si  0  0  0  0  0  4  0  0  0  0  0  0
    0.9207   -2.1848   11.6410 H   0  0  0  0  0  0  0  0  0  0  0  0
   -0.5250   -3.8040   10.6867 H   0  0  0  0  0  0  0  0  0  0  0  0
    2.0220   -3.4708    9.0510 Si  0  0  0  0  0  4  0  0  0  0  0  0
    3.1218   -3.9027    9.9611 H   0  0  0  0  0  0  0  0  0  0  0  0
    2.5761   -2.4146    8.2102 H   0  0  0  0  0  0  0  0  0  0  0  0
   -1.3163   -1.5995    8.1348 H   0  0  0  0  0  0  0  0  0  0  0  0
   -1.6869   -0.4586   10.2047 H   0  0  0  0  0  0  0  0  0  0  0  0
    2.3601   -3.8916    5.2596 H   0  0  0  0  0  0  0  0  0  0  0  0
    1.2360   -6.0008    4.9434 H   0  0  0  0  0  0  0  0  0  0  0  0
   -1.7899   -4.6257    5.0282 H   0  0  0  0  0  0  0  0  0  0  0  0
   -1.0302   -2.5709    5.9559 H   0  0  0  0  0  0  0  0  0  0  0  0
    3.1149    1.7339    4.7163 H   0  0  0  0  0  0  0  0  0  0  0  0
    1.5308    2.8812    6.1553 H   0  0  0  0  0  0  0  0  0  0  0  0
  1  2  1  0
  1  5  1  0
  2  3  1  0
  2  4  1  0
  2 11  1  0
  5  6  1  0
  5  7  1  0
  5  8  1  0
  8  9  1  0
  8 36  1  0
  8 37  1  0
  9 14  1  0
  9 18  1  0
  9 19  1  0
 10 11  1  0
 10 15  1  0
 10 34  1  0
 10 35  1  0
 11 12  1  0
 11 13  1  0
 14 16  1  0
 14 20  1  0
 14 21  1  0
 15 17  1  0
 15 32  1  0
 15 33  1  0
 16 24  1  0
 16 30  1  0
 16 31  1  0
 17 22  1  0
 17 23  1  0
 17 27  1  0
 24 25  1  0
 24 26  1  0
 24 27  1  0
 27 28  1  0
 27 29  1  0
M  CHG  1   1   1
M  RAD  1   1   2
M  END
$$$$

     RDKit          3D

 37 37  0  0  0  0  0  0  0  0999 V2000
    1.0521    0.2434    2.2297 S   0  0  0  0  0  2  0  0  0  0  0  0
    1.8702    1.8130    3.4803 Si  0  0  0  0  0  4  0  0  0  0  0  0
    1.5468    3.0902    2.7833 H   0  0  0  0  0  0  0  0  0  0  0  0
    1.2200    1.8558    4.7752 H   0  0  0  0  0  0  0  0  0  0  0  0
    1.2969   -1.6617    3.2179 Si  0  0  0  0  0  4  0  0  0  0  0  0
    0.0429   -2.4239    2.9563 H   0  0  0  0  0  0  0  0  0  0  0  0
    2.3915   -2.4289    2.6534 H   0  0  0  0  0  0  0  0  0  0  0  0
    1.4575   -1.3394    5.3908 Si  0  0  0  0  0  4  0  0  0  0  0  0
    3.2353   -2.4156    6.2644 Si  0  0  0  0  0  4  0  0  0  0  0  0
    4.9959    2.7282    5.1986 Si  0  0  0  0  0  4  0  0  0  0  0  0
    4.0584    1.5080    3.5997 Si  0  0  0  0  0  4  0  0  0  0  0  0
    4.6460    1.9493    2.3047 H   0  0  0  0  0  0  0  0  0  0  0  0
    4.3646    0.0807    3.7217 H   0  0  0  0  0  0  0  0  0  0  0  0
    3.3107   -1.8162    8.4128 Si  0  0  0  0  0  4  0  0  0  0  0  0
    4.0523    2.4172    7.1698 Si  0  0  0  0  0  4  0  0  0  0  0  0
    5.1811   -2.4716    9.3957 Si  0  0  0  0  0  4  0  0  0  0  0  0
    5.5061    1.5391    8.6472 Si  0  0  0  0  0  4  0  0  0  0  0  0
    2.9823   -3.8719    6.1636 H   0  0  0  0  0  0  0  0  0  0  0  0
    4.4682   -2.0311    5.6092 H   0  0  0  0  0  0  0  0  0  0  0  0
    3.0378   -0.3926    8.5728 H   0  0  0  0  0  0  0  0  0  0  0  0
    2.1901   -2.5371    9.0822 H   0  0  0  0  0  0  0  0  0  0  0  0
    6.1694    2.7037    9.3007 H   0  0  0  0  0  0  0  0  0  0  0  0
    4.7575    0.8513    9.6928 H   0  0  0  0  0  0  0  0  0  0  0  0
    7.0100   -1.8185    8.3695 Si  0  0  0  0  0  4  0  0  0  0  0  0
    8.1557   -2.0025    9.2749 H   0  0  0  0  0  0  0  0  0  0  0  0
    7.2534   -2.7297    7.2154 H   0  0  0  0  0  0  0  0  0  0  0  0
    6.9791    0.2451    7.6417 Si  0  0  0  0  0  4  0  0  0  0  0  0
    8.3290    0.8506    7.8017 H   0  0  0  0  0  0  0  0  0  0  0  0
    6.7136    0.2766    6.1755 H   0  0  0  0  0  0  0  0  0  0  0  0
    5.1750   -3.9599    9.4287 H   0  0  0  0  0  0  0  0  0  0  0  0
    5.1234   -2.0346   10.7988 H   0  0  0  0  0  0  0  0  0  0  0  0
    2.8983    1.5176    7.1258 H   0  0  0  0  0  0  0  0  0  0  0  0
    3.5727    3.7139    7.6761 H   0  0  0  0  0  0  0  0  0  0  0  0
    6.4277    2.3714    5.2564 H   0  0  0  0  0  0  0  0  0  0  0  0
    4.9321    4.1485    4.7811 H   0  0  0  0  0  0  0  0  0  0  0  0
    0.2627   -1.7937    6.1303 H   0  0  0  0  0  0  0  0  0  0  0  0
    1.6351    0.0755    5.6811 H   0  0  0  0  0  0  0  0  0  0  0  0
  1  2  1  0
  1  5  1  0
  2  3  1  0
  2  4  1  0
  2 11  1  0
  5  6  1  0
  5  7  1  0
  5  8  1  0
  8  9  1  0
  8 36  1  0
  8 37  1  0
  9 14  1  0
  9 18  1  0
  9 19  1  0
 10 11  1  0
 10 15  1  0
 10 34  1  0
 10 35  1  0
 11 12  1  0
 11 13  1  0
 14 16  1  0
 14 20  1  0
 14 21  1  0
 15 17  1  0
 15 32  1  0
 15 33  1  0
 16 24  1  0
 16 30  1  0
 16 31  1  0
 17 22  1  0
 17 23  1  0
 17 27  1  0
 24 25  1  0
 24 26  1  0
 24 27  1  0
 27 28  1  0
 27 29  1  0
M  CHG  1   1   1
M  RAD  1   1   2
M  END
$$$$

     RDKit          3D

 37 37  0  0  0  0  0  0  0  0999 V2000
    1.0521    0.2434    2.2297 S   0  0  0  0  0  2  0  0  0  0  0  0
    2.6876    1.5045    2.7655 Si  0  0  0  0  0  4  0  0  0  0  0  0
    3.3617    1.9777    1.5700 H   0  0  0  0  0  0  0  0  0  0  0  0
    2.1836    2.6915    3.5090 H   0  0  0  0  0  0  0  0  0  0  0  0
   -0.7783    1.0511    3.0601 Si  0  0  0  0  0  4  0  0  0  0  0  0
   -1.6213   -0.0322    3.5602 H   0  0  0  0  0  0  0  0  0  0  0  0
   -1.5191    1.7694    1.9944 H   0  0  0  0  0  0  0  0  0  0  0  0
   -0.2292    2.5137    4.6405 Si  0  0  0  0  0  4  0  0  0  0  0  0
   -1.7626    2.6713    6.2218 Si  0  0  0  0  0  4  0  0  0  0  0  0
    3.1198   -1.1350    5.3049 Si  0  0  0  0  0  4  0  0  0  0  0  0
    4.1069    0.4531    4.1550 Si  0  0  0  0  0  4  0  0  0  0  0  0
    5.1349   -0.1747    3.2749 H   0  0  0  0  0  0  0  0  0  0  0  0
    4.8245    1.4305    4.9793 H   0  0  0  0  0  0  0  0  0  0  0  0
   -0.7174    3.0224    8.1830 Si  0  0  0  0  0  4  0  0  0  0  0  0
    2.1498   -0.4125    7.1676 Si  0  0  0  0  0  4  0  0  0  0  0  0
    0.8359    4.6032    7.8573 Si  0  0  0  0  0  4  0  0  0  0  0  0
    3.5575    0.6320    8.5135 Si  0  0  0  0  0  4  0  0  0  0  0  0
   -2.5723    3.8891    5.9591 H   0  0  0  0  0  0  0  0  0  0  0  0
   -2.6218    1.4729    6.2950 H   0  0  0  0  0  0  0  0  0  0  0  0
   -1.6986    3.5104    9.1601 H   0  0  0  0  0  0  0  0  0  0  0  0
   -0.0541    1.7867    8.6491 H   0  0  0  0  0  0  0  0  0  0  0  0
    4.7952   -0.1547    8.6674 H   0  0  0  0  0  0  0  0  0  0  0  0
    2.9392    0.6762    9.8699 H   0  0  0  0  0  0  0  0  0  0  0  0
    2.6760    4.1660    9.0687 Si  0  0  0  0  0  4  0  0  0  0  0  0
    3.4145    5.4204    9.2848 H   0  0  0  0  0  0  0  0  0  0  0  0
    2.2641    3.5785   10.3473 H   0  0  0  0  0  0  0  0  0  0  0  0
    3.9502    2.7236    7.8982 Si  0  0  0  0  0  4  0  0  0  0  0  0
    5.3780    3.0234    8.2005 H   0  0  0  0  0  0  0  0  0  0  0  0
    3.7143    2.9359    6.4830 H   0  0  0  0  0  0  0  0  0  0  0  0
    1.1556    4.7246    6.4324 H   0  0  0  0  0  0  0  0  0  0  0  0
    0.2861    5.9053    8.2935 H   0  0  0  0  0  0  0  0  0  0  0  0
    0.9724    0.4083    6.9093 H   0  0  0  0  0  0  0  0  0  0  0  0
    1.6600   -1.6208    7.8910 H   0  0  0  0  0  0  0  0  0  0  0  0
    2.1125   -1.7880    4.4800 H   0  0  0  0  0  0  0  0  0  0  0  0
    4.1075   -2.1789    5.6898 H   0  0  0  0  0  0  0  0  0  0  0  0
    1.0867    2.0915    5.2016 H   0  0  0  0  0  0  0  0  0  0  0  0
    0.0428    3.8290    3.9933 H   0  0  0  0  0  0  0  0  0  0  0  0
  1  2  1  0
  1  5  1  0
  2  3  1  0
  2  4  1  0
  2 11  1  0
  5  6  1  0
  5  7  1  0
  5  8  1  0
  8  9  1  0
  8 36  1  0
  8 37  1  0
  9 14  1  0
  9 18  1  0
  9 19  1  0
 10 11  1  0
 10 15  1  0
 10 34  1  0
 10 35  1  0
 11 12  1  0
 11 13  1  0
 14 16  1  0
 14 20  1  0
 14 21  1  0
 15 17  1  0
 15 32  1  0
 15 33  1  0
 16 24  1  0
 16 30  1  0
 16 31  1  0
 17 22  1  0
 17 23  1  0
 17 27  1  0
 24 25  1  0
 24 26  1  0
 24 27  1  0
 27 28  1  0
 27 29  1  0
M  CHG  1   1   1
M  RAD  1   1   2
M  END
$$$$

     RDKit          3D

 37 37  0  0  0  0  0  0  0  0999 V2000
    1.0521    0.2434    2.2297 S   0  0  0  0  0  2  0  0  0  0  0  0
    2.7104    1.4333    2.9583 Si  0  0  0  0  0  4  0  0  0  0  0  0
    3.2335    2.1629    1.7683 H   0  0  0  0  0  0  0  0  0  0  0  0
    2.2708    2.4318    3.9130 H   0  0  0  0  0  0  0  0  0  0  0  0
    0.0849   -0.7345    3.8952 Si  0  0  0  0  0  4  0  0  0  0  0  0
   -1.3781   -0.6679    3.6171 H   0  0  0  0  0  0  0  0  0  0  0  0
    0.4421   -2.1381    3.9821 H   0  0  0  0  0  0  0  0  0  0  0  0
    0.4805    0.4050    5.7382 Si  0  0  0  0  0  4  0  0  0  0  0  0
    1.2236   -0.9264    7.3986 Si  0  0  0  0  0  4  0  0  0  0  0  0
    5.7758    1.0917    4.9699 Si  0  0  0  0  0  4  0  0  0  0  0  0
    4.2314    0.0455    3.7680 Si  0  0  0  0  0  4  0  0  0  0  0  0
    4.9244   -0.5875    2.6122 H   0  0  0  0  0  0  0  0  0  0  0  0
    3.5830   -1.0440    4.5018 H   0  0  0  0  0  0  0  0  0  0  0  0
    1.7250    0.4387    9.0914 Si  0  0  0  0  0  4  0  0  0  0  0  0
    4.9077    2.3289    6.5788 Si  0  0  0  0  0  4  0  0  0  0  0  0
    2.8066   -0.6073   10.7132 Si  0  0  0  0  0  4  0  0  0  0  0  0
    5.5410    1.5963    8.6111 Si  0  0  0  0  0  4  0  0  0  0  0  0
    0.1135   -1.8236    7.7960 H   0  0  0  0  0  0  0  0  0  0  0  0
    2.4050   -1.6650    7.0038 H   0  0  0  0  0  0  0  0  0  0  0  0
    2.4060    1.6380    8.6175 H   0  0  0  0  0  0  0  0  0  0  0  0
    0.4215    0.8910    9.6571 H   0  0  0  0  0  0  0  0  0  0  0  0
    6.8066    2.3199    8.9240 H   0  0  0  0  0  0  0  0  0  0  0  0
    4.5604    2.0361    9.5968 H   0  0  0  0  0  0  0  0  0  0  0  0
    4.6091   -1.6716   10.0480 Si  0  0  0  0  0  4  0  0  0  0  0  0
    5.4171   -2.0230   11.2270 H   0  0  0  0  0  0  0  0  0  0  0  0
    4.1933   -2.9670    9.4393 H   0  0  0  0  0  0  0  0  0  0  0  0
    5.8505   -0.5853    8.6100 Si  0  0  0  0  0  4  0  0  0  0  0  0
    7.2871   -0.8601    8.8836 H   0  0  0  0  0  0  0  0  0  0  0  0
    5.6164   -1.0957    7.2294 H   0  0  0  0  0  0  0  0  0  0  0  0
    1.8734   -1.6034   11.3075 H   0  0  0  0  0  0  0  0  0  0  0  0
    3.0789    0.3758   11.7727 H   0  0  0  0  0  0  0  0  0  0  0  0
    3.4440    2.3466    6.5724 H   0  0  0  0  0  0  0  0  0  0  0  0
    5.3593    3.7195    6.4041 H   0  0  0  0  0  0  0  0  0  0  0  0
    6.6723    0.0669    5.5417 H   0  0  0  0  0  0  0  0  0  0  0  0
    6.5997    1.9022    4.0426 H   0  0  0  0  0  0  0  0  0  0  0  0
   -0.7122    1.1136    6.2444 H   0  0  0  0  0  0  0  0  0  0  0  0
    1.5118    1.4046    5.5039 H   0  0  0  0  0  0  0  0  0  0  0  0
  1  2  1  0
  1  5  1  0
  2  3  1  0
  2  4  1  0
  2 11  1  0
  5  6  1  0
  5  7  1  0
  5  8  1  0
  8  9  1  0
  8 36  1  0
  8 37  1  0
  9 14  1  0
  9 18  1  0
  9 19  1  0
 10 11  1  0
 10 15  1  0
 10 34  1  0
 10 35  1  0
 11 12  1  0
 11 13  1  0
 14 16  1  0
 14 20  1  0
 14 21  1  0
 15 17  1  0
 15 32  1  0
 15 33  1  0
 16 24  1  0
 16 30  1  0
 16 31  1  0
 17 22  1  0
 17 23  1  0
 17 27  1  0
 24 25  1  0
 24 26  1  0
 24 27  1  0
 27 28  1  0
 27 29  1  0
M  CHG  1   1   1
M  RAD  1   1   2
M  END
$$$$

     RDKit          3D

 37 37  0  0  0  0  0  0  0  0999 V2000
    1.0521    0.2434    2.2297 S   0  0  0  0  0  2  0  0  0  0  0  0
    1.7757    1.5794    3.7241 Si  0  0  0  0  0  4  0  0  0  0  0  0
    1.1960    1.3005    5.0540 H   0  0  0  0  0  0  0  0  0  0  0  0
    1.4581    2.9609    3.3586 H   0  0  0  0  0  0  0  0  0  0  0  0
   -0.3235   -1.1270    3.1906 Si  0  0  0  0  0  4  0  0  0  0  0  0
   -1.3994   -0.3418    3.8145 H   0  0  0  0  0  0  0  0  0  0  0  0
   -0.8832   -1.9915    2.1617 H   0  0  0  0  0  0  0  0  0  0  0  0
    0.7427   -2.2978    4.7537 Si  0  0  0  0  0  4  0  0  0  0  0  0
   -0.0490   -1.8509    6.7920 Si  0  0  0  0  0  4  0  0  0  0  0  0
    4.6552    3.3088    5.0160 Si  0  0  0  0  0  4  0  0  0  0  0  0
    4.0071    1.4324    3.9445 Si  0  0  0  0  0  4  0  0  0  0  0  0
    4.6708    1.2967    2.6634 H   0  0  0  0  0  0  0  0  0  0  0  0
    4.3371    0.3124    4.8602 H   0  0  0  0  0  0  0  0  0  0  0  0
    1.4035   -2.4192    8.3778 Si  0  0  0  0  0  4  0  0  0  0  0  0
    3.4148    3.3944    6.8968 Si  0  0  0  0  0  4  0  0  0  0  0  0
    3.4407   -2.7860    7.5366 Si  0  0  0  0  0  4  0  0  0  0  0  0
    4.5631    2.4603    8.5568 Si  0  0  0  0  0  4  0  0  0  0  0  0
   -0.3952   -0.4216    6.8744 H   0  0  0  0  0  0  0  0  0  0  0  0
   -1.3158   -2.5972    6.9415 H   0  0  0  0  0  0  0  0  0  0  0  0
    1.4305   -1.3276    9.3731 H   0  0  0  0  0  0  0  0  0  0  0  0
    0.8970   -3.6199    9.0731 H   0  0  0  0  0  0  0  0  0  0  0  0
    4.4293    3.3495    9.7382 H   0  0  0  0  0  0  0  0  0  0  0  0
    5.9821    2.4227    8.1964 H   0  0  0  0  0  0  0  0  0  0  0  0
    4.8765   -1.1950    8.1728 Si  0  0  0  0  0  4  0  0  0  0  0  0
    5.7015   -0.7529    7.0412 H   0  0  0  0  0  0  0  0  0  0  0  0
    5.8030   -1.8149    9.1484 H   0  0  0  0  0  0  0  0  0  0  0  0
    3.7608    0.4723    9.1207 Si  0  0  0  0  0  4  0  0  0  0  0  0
    3.8586    0.3019   10.5914 H   0  0  0  0  0  0  0  0  0  0  0  0
    2.3452    0.3916    8.7558 H   0  0  0  0  0  0  0  0  0  0  0  0
    3.8857   -4.1236    7.9920 H   0  0  0  0  0  0  0  0  0  0  0  0
    3.4166   -2.8409    6.0644 H   0  0  0  0  0  0  0  0  0  0  0  0
    2.1249    2.7177    6.6819 H   0  0  0  0  0  0  0  0  0  0  0  0
    3.1249    4.8119    7.1447 H   0  0  0  0  0  0  0  0  0  0  0  0
    4.3071    4.4541    4.1446 H   0  0  0  0  0  0  0  0  0  0  0  0
    6.0752    3.2794    5.3236 H   0  0  0  0  0  0  0  0  0  0  0  0
    2.1691   -1.9515    4.7172 H   0  0  0  0  0  0  0  0  0  0  0  0
    0.5936   -3.7218    4.4346 H   0  0  0  0  0  0  0  0  0  0  0  0
  1  2  1  0
  1  5  1  0
  2  3  1  0
  2  4  1  0
  2 11  1  0
  5  6  1  0
  5  7  1  0
  5  8  1  0
  8  9  1  0
  8 36  1  0
  8 37  1  0
  9 14  1  0
  9 18  1  0
  9 19  1  0
 10 11  1  0
 10 15  1  0
 10 34  1  0
 10 35  1  0
 11 12  1  0
 11 13  1  0
 14 16  1  0
 14 20  1  0
 14 21  1  0
 15 17  1  0
 15 32  1  0
 15 33  1  0
 16 24  1  0
 16 30  1  0
 16 31  1  0
 17 22  1  0
 17 23  1  0
 17 27  1  0
 24 25  1  0
 24 26  1  0
 24 27  1  0
 27 28  1  0
 27 29  1  0
M  CHG  1   1   1
M  RAD  1   1   2
M  END
$$$$

     RDKit          3D

 37 37  0  0  0  0  0  0  0  0999 V2000
    1.0521    0.2434    2.2297 S   0  0  0  0  0  2  0  0  0  0  0  0
    2.8960    1.1805    2.8766 Si  0  0  0  0  0  4  0  0  0  0  0  0
    3.5843    1.6150    1.6279 H   0  0  0  0  0  0  0  0  0  0  0  0
    2.6411    2.3725    3.6614 H   0  0  0  0  0  0  0  0  0  0  0  0
   -0.1329   -0.2770    3.9590 Si  0  0  0  0  0  4  0  0  0  0  0  0
   -1.5455    0.0320    3.5967 H   0  0  0  0  0  0  0  0  0  0  0  0
   -0.0661   -1.6958    4.2554 H   0  0  0  0  0  0  0  0  0  0  0  0
    0.4360    1.0174    5.6478 Si  0  0  0  0  0  4  0  0  0  0  0  0
    0.8555   -0.1793    7.5116 Si  0  0  0  0  0  4  0  0  0  0  0  0
    5.7792    0.5432    5.0768 Si  0  0  0  0  0  4  0  0  0  0  0  0
    4.0877   -0.3450    3.9481 Si  0  0  0  0  0  4  0  0  0  0  0  0
    4.6690   -1.2606    2.9280 H   0  0  0  0  0  0  0  0  0  0  0  0
    3.2160   -1.1701    4.7879 H   0  0  0  0  0  0  0  0  0  0  0  0
    1.5769    1.2918    9.0267 Si  0  0  0  0  0  4  0  0  0  0  0  0
    5.1359    2.1445    6.4533 Si  0  0  0  0  0  4  0  0  0  0  0  0
    2.3861    0.3007   10.8314 Si  0  0  0  0  0  4  0  0  0  0  0  0
    5.5582    1.6037    8.5973 Si  0  0  0  0  0  4  0  0  0  0  0  0
   -0.4213   -0.7766    7.9678 H   0  0  0  0  0  0  0  0  0  0  0  0
    1.8748   -1.1826    7.2848 H   0  0  0  0  0  0  0  0  0  0  0  0
    2.4958    2.2547    8.4307 H   0  0  0  0  0  0  0  0  0  0  0  0
    0.3764    2.0658    9.4550 H   0  0  0  0  0  0  0  0  0  0  0  0
    6.9347    2.1048    8.8757 H   0  0  0  0  0  0  0  0  0  0  0  0
    4.6609    2.3632    9.4602 H   0  0  0  0  0  0  0  0  0  0  0  0
    3.9555   -1.1785   10.4147 Si  0  0  0  0  0  4  0  0  0  0  0  0
    4.6467   -1.5065   11.6720 H   0  0  0  0  0  0  0  0  0  0  0  0
    3.3044   -2.4423    9.9670 H   0  0  0  0  0  0  0  0  0  0  0  0
    5.4250   -0.5733    8.9103 Si  0  0  0  0  0  4  0  0  0  0  0  0
    6.7702   -1.0799    9.2951 H   0  0  0  0  0  0  0  0  0  0  0  0
    5.1284   -1.2222    7.6017 H   0  0  0  0  0  0  0  0  0  0  0  0
    1.2578   -0.3986   11.5053 H   0  0  0  0  0  0  0  0  0  0  0  0
    2.8228    1.3543   11.7599 H   0  0  0  0  0  0  0  0  0  0  0  0
    3.7060    2.4453    6.3664 H   0  0  0  0  0  0  0  0  0  0  0  0
    5.8609    3.3806    6.1149 H   0  0  0  0  0  0  0  0  0  0  0  0
    6.4378   -0.5430    5.8300 H   0  0  0  0  0  0  0  0  0  0  0  0
    6.7718    1.0355    4.0929 H   0  0  0  0  0  0  0  0  0  0  0  0
   -0.6032    2.0099    5.9883 H   0  0  0  0  0  0  0  0  0  0  0  0
    1.6520    1.7530    5.3348 H   0  0  0  0  0  0  0  0  0  0  0  0
  1  2  1  0
  1  5  1  0
  2  3  1  0
  2  4  1  0
  2 11  1  0
  5  6  1  0
  5  7  1  0
  5  8  1  0
  8  9  1  0
  8 36  1  0
  8 37  1  0
  9 14  1  0
  9 18  1  0
  9 19  1  0
 10 11  1  0
 10 15  1  0
 10 34  1  0
 10 35  1  0
 11 12  1  0
 11 13  1  0
 14 16  1  0
 14 20  1  0
 14 21  1  0
 15 17  1  0
 15 32  1  0
 15 33  1  0
 16 24  1  0
 16 30  1  0
 16 31  1  0
 17 22  1  0
 17 23  1  0
 17 27  1  0
 24 25  1  0
 24 26  1  0
 24 27  1  0
 27 28  1  0
 27 29  1  0
M  CHG  1   1   1
M  RAD  1   1   2
M  END
$$$$

     RDKit          3D

 37 37  0  0  0  0  0  0  0  0999 V2000
    1.0521    0.2434    2.2297 S   0  0  0  0  0  2  0  0  0  0  0  0
    2.0883    1.7979    3.3282 Si  0  0  0  0  0  4  0  0  0  0  0  0
    1.9953    3.0190    2.4784 H   0  0  0  0  0  0  0  0  0  0  0  0
    1.4244    2.0974    4.5816 H   0  0  0  0  0  0  0  0  0  0  0  0
    0.9577   -1.5459    3.4361 Si  0  0  0  0  0  4  0  0  0  0  0  0
   -0.3983   -2.1223    3.2100 H   0  0  0  0  0  0  0  0  0  0  0  0
    1.9239   -2.5402    3.0082 H   0  0  0  0  0  0  0  0  0  0  0  0
    1.1193   -0.9989    5.5635 Si  0  0  0  0  0  4  0  0  0  0  0  0
    2.6755   -2.2357    6.6268 Si  0  0  0  0  0  4  0  0  0  0  0  0
    5.2817    2.3959    5.0615 Si  0  0  0  0  0  4  0  0  0  0  0  0
    4.1932    1.1618    3.5728 Si  0  0  0  0  0  4  0  0  0  0  0  0
    4.8748    1.3466    2.2620 H   0  0  0  0  0  0  0  0  0  0  0  0
    4.2577   -0.2717    3.8679 H   0  0  0  0  0  0  0  0  0  0  0  0
    2.7993   -1.4064    8.6949 Si  0  0  0  0  0  4  0  0  0  0  0  0
    4.2549    2.4758    7.0140 Si  0  0  0  0  0  4  0  0  0  0  0  0
    4.5135   -2.2329    9.8230 Si  0  0  0  0  0  4  0  0  0  0  0  0
    5.5104    1.5565    8.6407 Si  0  0  0  0  0  4  0  0  0  0  0  0
    2.1889   -3.6340    6.6806 H   0  0  0  0  0  0  0  0  0  0  0  0
    3.9695   -2.1345    5.9845 H   0  0  0  0  0  0  0  0  0  0  0  0
    2.7604    0.0513    8.6816 H   0  0  0  0  0  0  0  0  0  0  0  0
    1.5603   -1.8537    9.3940 H   0  0  0  0  0  0  0  0  0  0  0  0
    6.3410    2.6685    9.1857 H   0  0  0  0  0  0  0  0  0  0  0  0
    4.6352    1.1264    9.7249 H   0  0  0  0  0  0  0  0  0  0  0  0
    6.4479   -2.0079    8.8071 Si  0  0  0  0  0  4  0  0  0  0  0  0
    7.5267   -2.2653    9.7747 H   0  0  0  0  0  0  0  0  0  0  0  0
    6.5644   -3.0765    7.7745 H   0  0  0  0  0  0  0  0  0  0  0  0
    6.7732   -0.0669    7.8503 Si  0  0  0  0  0  4  0  0  0  0  0  0
    8.2003    0.3285    7.9972 H   0  0  0  0  0  0  0  0  0  0  0  0
    6.5502   -0.1668    6.3801 H   0  0  0  0  0  0  0  0  0  0  0  0
    4.2620   -3.6864   10.0236 H   0  0  0  0  0  0  0  0  0  0  0  0
    4.4962   -1.6295   11.1642 H   0  0  0  0  0  0  0  0  0  0  0  0
    2.9700    1.7744    7.0236 H   0  0  0  0  0  0  0  0  0  0  0  0
    3.9836    3.8834    7.3501 H   0  0  0  0  0  0  0  0  0  0  0  0
    6.6337    1.8231    5.2191 H   0  0  0  0  0  0  0  0  0  0  0  0
    5.4619    3.7485    4.4840 H   0  0  0  0  0  0  0  0  0  0  0  0
   -0.1505   -1.1647    6.2989 H   0  0  0  0  0  0  0  0  0  0  0  0
    1.5204    0.3934    5.6994 H   0  0  0  0  0  0  0  0  0  0  0  0
  1  2  1  0
  1  5  1  0
  2  3  1  0
  2  4  1  0
  2 11  1  0
  5  6  1  0
  5  7  1  0
  5  8  1  0
  8  9  1  0
  8 36  1  0
  8 37  1  0
  9 14  1  0
  9 18  1  0
  9 19  1  0
 10 11  1  0
 10 15  1  0
 10 34  1  0
 10 35  1  0
 11 12  1  0
 11 13  1  0
 14 16  1  0
 14 20  1  0
 14 21  1  0
 15 17  1  0
 15 32  1  0
 15 33  1  0
 16 24  1  0
 16 30  1  0
 16 31  1  0
 17 22  1  0
 17 23  1  0
 17 27  1  0
 24 25  1  0
 24 26  1  0
 24 27  1  0
 27 28  1  0
 27 29  1  0
M  CHG  1   1   1
M  RAD  1   1   2
M  END
$$$$

     RDKit          3D

 37 37  0  0  0  0  0  0  0  0999 V2000
    1.0521    0.2434    2.2297 S   0  0  0  0  0  2  0  0  0  0  0  0
    1.1022    2.0350    3.3755 Si  0  0  0  0  0  4  0  0  0  0  0  0
    0.3698    3.0766    2.6152 H   0  0  0  0  0  0  0  0  0  0  0  0
    0.5166    1.8206    4.7038 H   0  0  0  0  0  0  0  0  0  0  0  0
    2.2704   -1.2904    3.0466 Si  0  0  0  0  0  4  0  0  0  0  0  0
    3.5594   -0.6732    3.4617 H   0  0  0  0  0  0  0  0  0  0  0  0
    2.6211   -2.2453    1.9609 H   0  0  0  0  0  0  0  0  0  0  0  0
    1.3286   -2.3565    4.7300 Si  0  0  0  0  0  4  0  0  0  0  0  0
   -0.8533   -2.0090    4.8754 Si  0  0  0  0  0  4  0  0  0  0  0  0
    4.1072    1.8530    5.4906 Si  0  0  0  0  0  4  0  0  0  0  0  0
    3.1884    2.7779    3.6788 Si  0  0  0  0  0  4  0  0  0  0  0  0
    3.0896    4.2426    3.9226 H   0  0  0  0  0  0  0  0  0  0  0  0
    4.0146    2.6065    2.4914 H   0  0  0  0  0  0  0  0  0  0  0  0
   -1.3917   -0.9771    6.7848 Si  0  0  0  0  0  4  0  0  0  0  0  0
    2.5880    1.2090    6.9628 Si  0  0  0  0  0  4  0  0  0  0  0  0
   -2.2854    1.0047    6.2523 Si  0  0  0  0  0  4  0  0  0  0  0  0
    1.8198    2.8653    8.2016 Si  0  0  0  0  0  4  0  0  0  0  0  0
   -1.5183   -3.3432    4.9091 H   0  0  0  0  0  0  0  0  0  0  0  0
   -1.3916   -1.3030    3.7084 H   0  0  0  0  0  0  0  0  0  0  0  0
   -0.1823   -0.7185    7.5924 H   0  0  0  0  0  0  0  0  0  0  0  0
   -2.2977   -1.7688    7.6032 H   0  0  0  0  0  0  0  0  0  0  0  0
    2.8177    3.9064    8.4629 H   0  0  0  0  0  0  0  0  0  0  0  0
    1.4423    2.3120    9.5328 H   0  0  0  0  0  0  0  0  0  0  0  0
   -1.8326    2.4912    7.8465 Si  0  0  0  0  0  4  0  0  0  0  0  0
   -2.9966    3.3796    7.9738 H   0  0  0  0  0  0  0  0  0  0  0  0
   -1.6540    1.8179    9.1508 H   0  0  0  0  0  0  0  0  0  0  0  0
   -0.0634    3.7404    7.3403 Si  0  0  0  0  0  4  0  0  0  0  0  0
   -0.2503    5.0677    7.9670 H   0  0  0  0  0  0  0  0  0  0  0  0
    0.0512    3.9377    5.8966 H   0  0  0  0  0  0  0  0  0  0  0  0
   -3.7511    0.8128    6.1760 H   0  0  0  0  0  0  0  0  0  0  0  0
   -1.8425    1.4415    4.9339 H   0  0  0  0  0  0  0  0  0  0  0  0
    1.4893    0.5645    6.2622 H   0  0  0  0  0  0  0  0  0  0  0  0
    3.2316    0.2186    7.8715 H   0  0  0  0  0  0  0  0  0  0  0  0
    5.1039    2.7224    6.1108 H   0  0  0  0  0  0  0  0  0  0  0  0
    4.8300    0.6348    5.0260 H   0  0  0  0  0  0  0  0  0  0  0  0
    1.9423   -1.9092    6.0077 H   0  0  0  0  0  0  0  0  0  0  0  0
    1.6527   -3.7978    4.6083 H   0  0  0  0  0  0  0  0  0  0  0  0
  1  2  1  0
  1  5  1  0
  2  3  1  0
  2  4  1  0
  2 11  1  0
  5  6  1  0
  5  7  1  0
  5  8  1  0
  8  9  1  0
  8 36  1  0
  8 37  1  0
  9 14  1  0
  9 18  1  0
  9 19  1  0
 10 11  1  0
 10 15  1  0
 10 34  1  0
 10 35  1  0
 11 12  1  0
 11 13  1  0
 14 16  1  0
 14 20  1  0
 14 21  1  0
 15 17  1  0
 15 32  1  0
 15 33  1  0
 16 24  1  0
 16 30  1  0
 16 31  1  0
 17 22  1  0
 17 23  1  0
 17 27  1  0
 24 25  1  0
 24 26  1  0
 24 27  1  0
 27 28  1  0
 27 29  1  0
M  CHG  1   1   1
M  RAD  1   1   2
M  END
$$$$

     RDKit          3D

 37 37  0  0  0  0  0  0  0  0999 V2000
    1.0521    0.2434    2.2297 S   0  0  0  0  0  2  0  0  0  0  0  0
    1.2008   -0.8329    4.0584 Si  0  0  0  0  0  4  0  0  0  0  0  0
    2.4000   -1.6998    4.0993 H   0  0  0  0  0  0  0  0  0  0  0  0
    1.2576    0.1662    5.1610 H   0  0  0  0  0  0  0  0  0  0  0  0
    2.9277    0.8771    1.4762 Si  0  0  0  0  0  4  0  0  0  0  0  0
    3.9584   -0.1740    1.5329 H   0  0  0  0  0  0  0  0  0  0  0  0
    2.7548    1.1949    0.0298 H   0  0  0  0  0  0  0  0  0  0  0  0
    3.7068    2.6892    2.4720 Si  0  0  0  0  0  4  0  0  0  0  0  0
    2.8710    2.9113    4.5524 Si  0  0  0  0  0  4  0  0  0  0  0  0
   -2.0279   -1.0667    5.8114 Si  0  0  0  0  0  4  0  0  0  0  0  0
   -0.6020   -2.0947    4.4399 Si  0  0  0  0  0  4  0  0  0  0  0  0
   -1.3004   -2.3606    3.1826 H   0  0  0  0  0  0  0  0  0  0  0  0
   -0.2359   -3.3857    5.0310 H   0  0  0  0  0  0  0  0  0  0  0  0
    4.0222    1.7476    6.0247 Si  0  0  0  0  0  4  0  0  0  0  0  0
   -1.0849   -0.4830    7.7227 Si  0  0  0  0  0  4  0  0  0  0  0  0
    4.1344    2.6762    8.0138 Si  0  0  0  0  0  4  0  0  0  0  0  0
   -0.5364    1.6822    7.6442 Si  0  0  0  0  0  4  0  0  0  0  0  0
    2.8800    4.3496    4.8908 H   0  0  0  0  0  0  0  0  0  0  0  0
    1.4588    2.5125    4.4637 H   0  0  0  0  0  0  0  0  0  0  0  0
    3.4227    0.3918    6.1752 H   0  0  0  0  0  0  0  0  0  0  0  0
    5.3976    1.5134    5.5214 H   0  0  0  0  0  0  0  0  0  0  0  0
   -1.7517    2.5148    7.6124 H   0  0  0  0  0  0  0  0  0  0  0  0
    0.1921    1.9158    6.4124 H   0  0  0  0  0  0  0  0  0  0  0  0
    2.2941    3.7262    8.6181 Si  0  0  0  0  0  4  0  0  0  0  0  0
    1.7103    4.4707    7.5046 H   0  0  0  0  0  0  0  0  0  0  0  0
    2.6059    4.6494    9.7143 H   0  0  0  0  0  0  0  0  0  0  0  0
    0.7407    2.2722    9.3600 Si  0  0  0  0  0  4  0  0  0  0  0  0
   -0.1363    2.9461   10.3593 H   0  0  0  0  0  0  0  0  0  0  0  0
    1.3765    1.1275   10.0160 H   0  0  0  0  0  0  0  0  0  0  0  0
    4.4020    1.6049    9.0150 H   0  0  0  0  0  0  0  0  0  0  0  0
    5.2947    3.5822    8.0806 H   0  0  0  0  0  0  0  0  0  0  0  0
   -2.0871   -0.6286    8.8098 H   0  0  0  0  0  0  0  0  0  0  0  0
    0.0720   -1.2850    8.0740 H   0  0  0  0  0  0  0  0  0  0  0  0
   -3.1596   -1.9795    6.0363 H   0  0  0  0  0  0  0  0  0  0  0  0
   -2.4983    0.1515    5.1201 H   0  0  0  0  0  0  0  0  0  0  0  0
    3.2403    3.8898    1.7224 H   0  0  0  0  0  0  0  0  0  0  0  0
    5.1592    2.7370    2.4769 H   0  0  0  0  0  0  0  0  0  0  0  0
  1  2  1  0
  1  5  1  0
  2  3  1  0
  2  4  1  0
  2 11  1  0
  5  6  1  0
  5  7  1  0
  5  8  1  0
  8  9  1  0
  8 36  1  0
  8 37  1  0
  9 14  1  0
  9 18  1  0
  9 19  1  0
 10 11  1  0
 10 15  1  0
 10 34  1  0
 10 35  1  0
 11 12  1  0
 11 13  1  0
 14 16  1  0
 14 20  1  0
 14 21  1  0
 15 17  1  0
 15 32  1  0
 15 33  1  0
 16 24  1  0
 16 30  1  0
 16 31  1  0
 17 22  1  0
 17 23  1  0
 17 27  1  0
 24 25  1  0
 24 26  1  0
 24 27  1  0
 27 28  1  0
 27 29  1  0
M  CHG  1   1   1
M  RAD  1   1   2
M  END
$$$$

     RDKit          3D

 37 37  0  0  0  0  0  0  0  0999 V2000
    1.0521    0.2434    2.2297 S   0  0  0  0  0  2  0  0  0  0  0  0
    2.9269    0.8328    3.0541 Si  0  0  0  0  0  4  0  0  0  0  0  0
    2.8645    2.1621    3.6955 H   0  0  0  0  0  0  0  0  0  0  0  0
    3.9471    0.8699    2.0049 H   0  0  0  0  0  0  0  0  0  0  0  0
   -0.3652    1.8321    2.6305 Si  0  0  0  0  0  4  0  0  0  0  0  0
    0.1491    3.0735    2.0324 H   0  0  0  0  0  0  0  0  0  0  0  0
   -1.6275    1.4728    2.0008 H   0  0  0  0  0  0  0  0  0  0  0  0
   -0.5939    2.1061    4.8268 Si  0  0  0  0  0  4  0  0  0  0  0  0
    0.1252    4.1157    5.4791 Si  0  0  0  0  0  4  0  0  0  0  0  0
    5.8326   -0.2409    4.8860 Si  0  0  0  0  0  4  0  0  0  0  0  0
    3.6230   -0.6146    4.6256 Si  0  0  0  0  0  4  0  0  0  0  0  0
    3.3578   -1.9895    4.2523 H   0  0  0  0  0  0  0  0  0  0  0  0
    3.0003   -0.2641    5.9260 H   0  0  0  0  0  0  0  0  0  0  0  0
    0.5738    4.1581    7.6572 Si  0  0  0  0  0  4  0  0  0  0  0  0
    6.0294    1.9623    5.3224 Si  0  0  0  0  0  4  0  0  0  0  0  0
    0.6994    2.0980    8.5132 Si  0  0  0  0  0  4  0  0  0  0  0  0
    6.0684    2.2565    7.5267 Si  0  0  0  0  0  4  0  0  0  0  0  0
    1.3080    4.4882    4.6844 H   0  0  0  0  0  0  0  0  0  0  0  0
   -0.9322    5.0899    5.1368 H   0  0  0  0  0  0  0  0  0  0  0  0
    1.8471    4.8852    7.8387 H   0  0  0  0  0  0  0  0  0  0  0  0
   -0.4714    4.9485    8.3388 H   0  0  0  0  0  0  0  0  0  0  0  0
    7.1597    3.2188    7.8221 H   0  0  0  0  0  0  0  0  0  0  0  0
    6.4161    0.9893    8.1734 H   0  0  0  0  0  0  0  0  0  0  0  0
    2.7973    1.5916    9.0965 Si  0  0  0  0  0  4  0  0  0  0  0  0
    3.1469    0.2331    8.6618 H   0  0  0  0  0  0  0  0  0  0  0  0
    2.8430    1.5813   10.5771 H   0  0  0  0  0  0  0  0  0  0  0  0
    4.1804    3.1292    8.2928 Si  0  0  0  0  0  4  0  0  0  0  0  0
    4.4876    4.0780    9.3915 H   0  0  0  0  0  0  0  0  0  0  0  0
    3.5180    3.8821    7.2260 H   0  0  0  0  0  0  0  0  0  0  0  0
   -0.2118    2.0347    9.6794 H   0  0  0  0  0  0  0  0  0  0  0  0
    0.2156    1.0849    7.5589 H   0  0  0  0  0  0  0  0  0  0  0  0
    4.9208    2.7018    4.6963 H   0  0  0  0  0  0  0  0  0  0  0  0
    7.2690    2.4096    4.6757 H   0  0  0  0  0  0  0  0  0  0  0  0
    6.4846   -0.5463    3.5922 H   0  0  0  0  0  0  0  0  0  0  0  0
    6.3814   -1.0422    5.9670 H   0  0  0  0  0  0  0  0  0  0  0  0
    0.1933    1.0779    5.5190 H   0  0  0  0  0  0  0  0  0  0  0  0
   -2.0101    1.9226    5.1619 H   0  0  0  0  0  0  0  0  0  0  0  0
  1  2  1  0
  1  5  1  0
  2  3  1  0
  2  4  1  0
  2 11  1  0
  5  6  1  0
  5  7  1  0
  5  8  1  0
  8  9  1  0
  8 36  1  0
  8 37  1  0
  9 14  1  0
  9 18  1  0
  9 19  1  0
 10 11  1  0
 10 15  1  0
 10 34  1  0
 10 35  1  0
 11 12  1  0
 11 13  1  0
 14 16  1  0
 14 20  1  0
 14 21  1  0
 15 17  1  0
 15 32  1  0
 15 33  1  0
 16 24  1  0
 16 30  1  0
 16 31  1  0
 17 22  1  0
 17 23  1  0
 17 27  1  0
 24 25  1  0
 24 26  1  0
 24 27  1  0
 27 28  1  0
 27 29  1  0
M  CHG  1   1   1
M  RAD  1   1   2
M  END
$$$$
