
     RDKit          3D

 37 37  0  0  0  0  0  0  0  0999 V2000
   -0.3345   -1.6998   -4.5278 S   0  0  0  0  0  2  0  0  0  0  0  0
   -0.4564   -3.7215   -5.2566 Si  0  0  0  0  0  4  0  0  0  0  0  0
    0.8837   -4.1188   -5.6758 H   0  0  0  0  0  0  0  0  0  0  0  0
   -0.9300   -4.5664   -4.1588 H   0  0  0  0  0  0  0  0  0  0  0  0
    1.5857   -0.8559   -4.9540 Si  0  0  0  0  0  4  0  0  0  0  0  0
    1.4178    0.3310   -5.8341 H   0  0  0  0  0  0  0  0  0  0  0  0
    2.2939   -0.4391   -3.7466 H   0  0  0  0  0  0  0  0  0  0  0  0
    2.8178   -2.3335   -6.0485 Si  0  0  0  0  0  4  0  0  0  0  0  0
    3.5531   -3.9670   -4.7364 Si  0  0  0  0  0  4  0  0  0  0  0  0
   -0.7510   -4.8677   -8.7317 Si  0  0  0  0  0  4  0  0  0  0  0  0
   -1.8050   -3.8569   -7.0195 Si  0  0  0  0  0  4  0  0  0  0  0  0
   -3.0072   -4.5747   -6.6302 H   0  0  0  0  0  0  0  0  0  0  0  0
   -2.2024   -2.4864   -7.3852 H   0  0  0  0  0  0  0  0  0  0  0  0
    4.5760   -5.4867   -6.0558 Si  0  0  0  0  0  4  0  0  0  0  0  0
   -0.7193   -3.4878  -10.4448 Si  0  0  0  0  0  4  0  0  0  0  0  0
    5.1453   -4.5006   -7.9900 Si  0  0  0  0  0  4  0  0  0  0  0  0
    1.0858   -3.7341  -11.7216 Si  0  0  0  0  0  4  0  0  0  0  0  0
    2.4942   -4.5846   -3.9486 H   0  0  0  0  0  0  0  0  0  0  0  0
    4.5327   -3.4033   -3.7805 H   0  0  0  0  0  0  0  0  0  0  0  0
    3.6722   -6.6243   -6.3156 H   0  0  0  0  0  0  0  0  0  0  0  0
    5.8064   -5.9622   -5.3925 H   0  0  0  0  0  0  0  0  0  0  0  0
    0.9827   -2.7175  -12.8074 H   0  0  0  0  0  0  0  0  0  0  0  0
    1.0818   -5.0392  -12.3852 H   0  0  0  0  0  0  0  0  0  0  0  0
    3.7784   -5.1565   -9.6407 Si  0  0  0  0  0  4  0  0  0  0  0  0
    2.7440   -6.0491   -9.1282 H   0  0  0  0  0  0  0  0  0  0  0  0
    4.5991   -5.9597  -10.5881 H   0  0  0  0  0  0  0  0  0  0  0  0
    2.9622   -3.3475  -10.6248 Si  0  0  0  0  0  4  0  0  0  0  0  0
    3.9794   -2.8771  -11.6075 H   0  0  0  0  0  0  0  0  0  0  0  0
    2.7553   -2.3158   -9.5915 H   0  0  0  0  0  0  0  0  0  0  0  0
    5.0765   -3.0328   -7.7975 H   0  0  0  0  0  0  0  0  0  0  0  0
    6.5482   -4.8102   -8.3017 H   0  0  0  0  0  0  0  0  0  0  0  0
   -1.8999   -3.7431  -11.2855 H   0  0  0  0  0  0  0  0  0  0  0  0
   -0.7976   -2.1081   -9.9557 H   0  0  0  0  0  0  0  0  0  0  0  0
   -1.5432   -6.0812   -9.0650 H   0  0  0  0  0  0  0  0  0  0  0  0
    0.5576   -5.3195   -8.2991 H   0  0  0  0  0  0  0  0  0  0  0  0
    2.1021   -2.8978   -7.1942 H   0  0  0  0  0  0  0  0  0  0  0  0
    4.0028   -1.6241   -6.5887 H   0  0  0  0  0  0  0  0  0  0  0  0
  1  2  1  0
  1  5  1  0
  2  3  1  0
  2  4  1  0
  2 11  1  0
  5  6  1  0
  5  7  1  0
  5  8  1  0
  8  9  1  0
  8 36  1  0
  8 37  1  0
  9 14  1  0
  9 18  1  0
  9 19  1  0
 10 11  1  0
 10 15  1  0
 10 34  1  0
 10 35  1  0
 11 12  1  0
 11 13  1  0
 14 16  1  0
 14 20  1  0
 14 21  1  0
 15 17  1  0
 15 32  1  0
 15 33  1  0
 16 24  1  0
 16 30  1  0
 16 31  1  0
 17 22  1  0
 17 23  1  0
 17 27  1  0
 24 25  1  0
 24 26  1  0
 24 27  1  0
 27 28  1  0
 27 29  1  0
M  CHG  1   1   1
M  RAD  1   1   2
M  END
$$$$

     RDKit          3D

 37 37  0  0  0  0  0  0  0  0999 V2000
   -0.3345   -1.6998   -4.5278 S   0  0  0  0  0  2  0  0  0  0  0  0
   -1.6544   -2.6388   -5.9043 Si  0  0  0  0  0  4  0  0  0  0  0  0
   -2.8903   -3.0807   -5.1983 H   0  0  0  0  0  0  0  0  0  0  0  0
   -1.0812   -3.8310   -6.5269 H   0  0  0  0  0  0  0  0  0  0  0  0
    1.7342   -2.0905   -5.0151 Si  0  0  0  0  0  4  0  0  0  0  0  0
    2.4188   -2.7733   -3.9362 H   0  0  0  0  0  0  0  0  0  0  0  0
    2.3430   -0.7920   -5.3331 H   0  0  0  0  0  0  0  0  0  0  0  0
    1.7907   -3.3593   -6.8331 Si  0  0  0  0  0  4  0  0  0  0  0  0
    3.7685   -4.2625   -7.2045 Si  0  0  0  0  0  4  0  0  0  0  0  0
   -0.6283    0.0943   -8.0446 Si  0  0  0  0  0  4  0  0  0  0  0  0
   -2.3118   -1.2445   -7.5229 Si  0  0  0  0  0  4  0  0  0  0  0  0
   -2.6571   -2.0291   -8.7372 H   0  0  0  0  0  0  0  0  0  0  0  0
   -3.5174   -0.5114   -7.1333 H   0  0  0  0  0  0  0  0  0  0  0  0
    5.2881   -2.9258   -8.0022 Si  0  0  0  0  0  4  0  0  0  0  0  0
   -0.3105    0.1880  -10.2691 Si  0  0  0  0  0  4  0  0  0  0  0  0
    4.7670   -0.7932   -8.0253 Si  0  0  0  0  0  4  0  0  0  0  0  0
    0.4321   -1.7776  -11.0402 Si  0  0  0  0  0  4  0  0  0  0  0  0
    3.5624   -5.3890   -8.1618 H   0  0  0  0  0  0  0  0  0  0  0  0
    4.2096   -4.9123   -5.9413 H   0  0  0  0  0  0  0  0  0  0  0  0
    6.5269   -3.0571   -7.1782 H   0  0  0  0  0  0  0  0  0  0  0  0
    5.7186   -3.3196   -9.3749 H   0  0  0  0  0  0  0  0  0  0  0  0
    0.0165   -1.9398  -12.4504 H   0  0  0  0  0  0  0  0  0  0  0  0
   -0.2253   -2.8330  -10.2524 H   0  0  0  0  0  0  0  0  0  0  0  0
    3.3595   -0.2107   -9.6233 Si  0  0  0  0  0  4  0  0  0  0  0  0
    3.9406    0.8101  -10.5432 H   0  0  0  0  0  0  0  0  0  0  0  0
    2.2156    0.4754   -8.9662 H   0  0  0  0  0  0  0  0  0  0  0  0
    2.6610   -1.9028  -10.8553 Si  0  0  0  0  0  4  0  0  0  0  0  0
    2.9708   -3.1853  -10.2042 H   0  0  0  0  0  0  0  0  0  0  0  0
    3.2734   -1.9408  -12.1907 H   0  0  0  0  0  0  0  0  0  0  0  0
    4.2939   -0.4043   -6.6762 H   0  0  0  0  0  0  0  0  0  0  0  0
    6.0209   -0.0176   -8.2354 H   0  0  0  0  0  0  0  0  0  0  0  0
   -1.5505    0.5966  -10.9009 H   0  0  0  0  0  0  0  0  0  0  0  0
    0.7586    1.1990  -10.4886 H   0  0  0  0  0  0  0  0  0  0  0  0
   -0.9945    1.4686   -7.6243 H   0  0  0  0  0  0  0  0  0  0  0  0
    0.5978   -0.2528   -7.3414 H   0  0  0  0  0  0  0  0  0  0  0  0
    0.8481   -4.4924   -6.5919 H   0  0  0  0  0  0  0  0  0  0  0  0
    1.2637   -2.6076   -7.9501 H   0  0  0  0  0  0  0  0  0  0  0  0
  1  2  1  0
  1  5  1  0
  2  3  1  0
  2  4  1  0
  2 11  1  0
  5  6  1  0
  5  7  1  0
  5  8  1  0
  8  9  1  0
  8 36  1  0
  8 37  1  0
  9 14  1  0
  9 18  1  0
  9 19  1  0
 10 11  1  0
 10 15  1  0
 10 34  1  0
 10 35  1  0
 11 12  1  0
 11 13  1  0
 14 16  1  0
 14 20  1  0
 14 21  1  0
 15 17  1  0
 15 32  1  0
 15 33  1  0
 16 24  1  0
 16 30  1  0
 16 31  1  0
 17 22  1  0
 17 23  1  0
 17 27  1  0
 24 25  1  0
 24 26  1  0
 24 27  1  0
 27 28  1  0
 27 29  1  0
M  CHG  1   1   1
M  RAD  1   1   2
M  END
$$$$

     RDKit          3D

 37 37  0  0  0  0  0  0  0  0999 V2000
   -0.3345   -1.6998   -4.5278 S   0  0  0  0  0  2  0  0  0  0  0  0
    0.3380   -0.0198   -5.6573 Si  0  0  0  0  0  4  0  0  0  0  0  0
   -0.6094    0.1771   -6.7734 H   0  0  0  0  0  0  0  0  0  0  0  0
    0.4003    1.1533   -4.7911 H   0  0  0  0  0  0  0  0  0  0  0  0
    0.7957   -3.4581   -4.9216 Si  0  0  0  0  0  4  0  0  0  0  0  0
    2.0458   -3.1928   -5.6325 H   0  0  0  0  0  0  0  0  0  0  0  0
    1.1783   -4.1124   -3.6375 H   0  0  0  0  0  0  0  0  0  0  0  0
   -0.3623   -4.9609   -6.0891 Si  0  0  0  0  0  4  0  0  0  0  0  0
   -1.1536   -4.0584   -7.9596 Si  0  0  0  0  0  4  0  0  0  0  0  0
    3.0083    1.1112   -7.9349 Si  0  0  0  0  0  4  0  0  0  0  0  0
    2.3640   -0.4040   -6.4780 Si  0  0  0  0  0  4  0  0  0  0  0  0
    2.3854   -1.7538   -7.0380 H   0  0  0  0  0  0  0  0  0  0  0  0
    3.3151   -0.4030   -5.3346 H   0  0  0  0  0  0  0  0  0  0  0  0
    0.4408   -3.4185   -9.3417 Si  0  0  0  0  0  4  0  0  0  0  0  0
    2.2921    0.7053   -9.9949 Si  0  0  0  0  0  4  0  0  0  0  0  0
    2.0976   -4.8382   -9.5339 Si  0  0  0  0  0  4  0  0  0  0  0  0
    3.1296   -1.1721  -10.8283 Si  0  0  0  0  0  4  0  0  0  0  0  0
   -2.1082   -4.9852   -8.5922 H   0  0  0  0  0  0  0  0  0  0  0  0
   -1.9421   -2.8588   -7.5773 H   0  0  0  0  0  0  0  0  0  0  0  0
   -0.1727   -3.2191  -10.6856 H   0  0  0  0  0  0  0  0  0  0  0  0
    0.9369   -2.1057   -8.9202 H   0  0  0  0  0  0  0  0  0  0  0  0
    3.8146   -0.8226  -12.1045 H   0  0  0  0  0  0  0  0  0  0  0  0
    2.0459   -2.1031  -11.2289 H   0  0  0  0  0  0  0  0  0  0  0  0
    4.0155   -4.0798   -8.7177 Si  0  0  0  0  0  4  0  0  0  0  0  0
    5.0491   -5.1143   -8.9825 H   0  0  0  0  0  0  0  0  0  0  0  0
    3.8789   -4.0358   -7.2350 H   0  0  0  0  0  0  0  0  0  0  0  0
    4.6077   -2.1193   -9.4902 Si  0  0  0  0  0  4  0  0  0  0  0  0
    4.8497   -1.1819   -8.3545 H   0  0  0  0  0  0  0  0  0  0  0  0
    5.9363   -2.2510  -10.1559 H   0  0  0  0  0  0  0  0  0  0  0  0
    2.3415   -5.2671  -10.9353 H   0  0  0  0  0  0  0  0  0  0  0  0
    1.7597   -6.0762   -8.7942 H   0  0  0  0  0  0  0  0  0  0  0  0
    0.8296    0.6133   -9.9634 H   0  0  0  0  0  0  0  0  0  0  0  0
    2.6343    1.8834  -10.8255 H   0  0  0  0  0  0  0  0  0  0  0  0
    4.4848    1.2083   -7.9028 H   0  0  0  0  0  0  0  0  0  0  0  0
    2.4946    2.4250   -7.5271 H   0  0  0  0  0  0  0  0  0  0  0  0
   -1.5160   -5.4528   -5.3084 H   0  0  0  0  0  0  0  0  0  0  0  0
    0.5031   -6.0731   -6.4331 H   0  0  0  0  0  0  0  0  0  0  0  0
  1  2  1  0
  1  5  1  0
  2  3  1  0
  2  4  1  0
  2 11  1  0
  5  6  1  0
  5  7  1  0
  5  8  1  0
  8  9  1  0
  8 36  1  0
  8 37  1  0
  9 14  1  0
  9 18  1  0
  9 19  1  0
 10 11  1  0
 10 15  1  0
 10 34  1  0
 10 35  1  0
 11 12  1  0
 11 13  1  0
 14 16  1  0
 14 20  1  0
 14 21  1  0
 15 17  1  0
 15 32  1  0
 15 33  1  0
 16 24  1  0
 16 30  1  0
 16 31  1  0
 17 22  1  0
 17 23  1  0
 17 27  1  0
 24 25  1  0
 24 26  1  0
 24 27  1  0
 27 28  1  0
 27 29  1  0
M  CHG  1   1   1
M  RAD  1   1   2
M  END
$$$$

     RDKit          3D

 37 37  0  0  0  0  0  0  0  0999 V2000
   -0.3345   -1.6998   -4.5278 S   0  0  0  0  0  2  0  0  0  0  0  0
    0.1236   -0.4131   -6.1566 Si  0  0  0  0  0  4  0  0  0  0  0  0
    0.0459    1.0084   -5.7153 H   0  0  0  0  0  0  0  0  0  0  0  0
   -0.8050   -0.5528   -7.2772 H   0  0  0  0  0  0  0  0  0  0  0  0
   -1.3815   -3.4727   -5.1835 Si  0  0  0  0  0  4  0  0  0  0  0  0
   -2.6869   -3.5831   -4.5651 H   0  0  0  0  0  0  0  0  0  0  0  0
   -0.5126   -4.6142   -4.8678 H   0  0  0  0  0  0  0  0  0  0  0  0
   -1.6248   -3.3600   -7.3849 Si  0  0  0  0  0  4  0  0  0  0  0  0
   -3.0793   -4.8170   -8.1768 Si  0  0  0  0  0  4  0  0  0  0  0  0
    2.6949   -2.8822   -6.7857 Si  0  0  0  0  0  4  0  0  0  0  0  0
    2.2011   -0.7287   -6.9185 Si  0  0  0  0  0  4  0  0  0  0  0  0
    2.2634   -0.3393   -8.3517 H   0  0  0  0  0  0  0  0  0  0  0  0
    3.1608    0.1164   -6.2061 H   0  0  0  0  0  0  0  0  0  0  0  0
   -2.3947   -6.8790   -8.2854 Si  0  0  0  0  0  4  0  0  0  0  0  0
    3.5675   -3.6465   -8.7125 Si  0  0  0  0  0  4  0  0  0  0  0  0
   -0.4817   -7.3034   -7.2950 Si  0  0  0  0  0  4  0  0  0  0  0  0
    2.0209   -3.6463  -10.3303 Si  0  0  0  0  0  4  0  0  0  0  0  0
   -3.4568   -4.3585   -9.5461 H   0  0  0  0  0  0  0  0  0  0  0  0
   -4.3255   -4.6881   -7.3751 H   0  0  0  0  0  0  0  0  0  0  0  0
   -3.4158   -7.7608   -7.6447 H   0  0  0  0  0  0  0  0  0  0  0  0
   -2.3161   -7.3719   -9.6909 H   0  0  0  0  0  0  0  0  0  0  0  0
    2.6843   -3.4910  -11.6431 H   0  0  0  0  0  0  0  0  0  0  0  0
    1.1642   -2.4686  -10.1162 H   0  0  0  0  0  0  0  0  0  0  0  0
    1.2978   -6.6127   -8.4041 Si  0  0  0  0  0  4  0  0  0  0  0  0
    2.2186   -7.7347   -8.7495 H   0  0  0  0  0  0  0  0  0  0  0  0
    2.0788   -5.7496   -7.4789 H   0  0  0  0  0  0  0  0  0  0  0  0
    0.8217   -5.5374  -10.2713 Si  0  0  0  0  0  4  0  0  0  0  0  0
   -0.5979   -5.1521  -10.3041 H   0  0  0  0  0  0  0  0  0  0  0  0
    1.0785   -6.3317  -11.4807 H   0  0  0  0  0  0  0  0  0  0  0  0
   -0.5346   -6.7753   -5.9117 H   0  0  0  0  0  0  0  0  0  0  0  0
   -0.3627   -8.7800   -7.1424 H   0  0  0  0  0  0  0  0  0  0  0  0
    4.7239   -2.8401   -9.0534 H   0  0  0  0  0  0  0  0  0  0  0  0
    3.9591   -5.0583   -8.4540 H   0  0  0  0  0  0  0  0  0  0  0  0
    3.7565   -3.0419   -5.7627 H   0  0  0  0  0  0  0  0  0  0  0  0
    1.5625   -3.6874   -6.3526 H   0  0  0  0  0  0  0  0  0  0  0  0
   -2.1788   -2.0057   -7.6841 H   0  0  0  0  0  0  0  0  0  0  0  0
   -0.3217   -3.4256   -8.0080 H   0  0  0  0  0  0  0  0  0  0  0  0
  1  2  1  0
  1  5  1  0
  2  3  1  0
  2  4  1  0
  2 11  1  0
  5  6  1  0
  5  7  1  0
  5  8  1  0
  8  9  1  0
  8 36  1  0
  8 37  1  0
  9 14  1  0
  9 18  1  0
  9 19  1  0
 10 11  1  0
 10 15  1  0
 10 34  1  0
 10 35  1  0
 11 12  1  0
 11 13  1  0
 14 16  1  0
 14 20  1  0
 14 21  1  0
 15 17  1  0
 15 32  1  0
 15 33  1  0
 16 24  1  0
 16 30  1  0
 16 31  1  0
 17 22  1  0
 17 23  1  0
 17 27  1  0
 24 25  1  0
 24 26  1  0
 24 27  1  0
 27 28  1  0
 27 29  1  0
M  CHG  1   1   1
M  RAD  1   1   2
M  END
$$$$

     RDKit          3D

 37 37  0  0  0  0  0  0  0  0999 V2000
   -0.3345   -1.6998   -4.5278 S   0  0  0  0  0  2  0  0  0  0  0  0
    1.3950   -2.9493   -4.3949 Si  0  0  0  0  0  4  0  0  0  0  0  0
    2.1683   -2.4987   -3.2091 H   0  0  0  0  0  0  0  0  0  0  0  0
    2.2184   -2.8986   -5.5911 H   0  0  0  0  0  0  0  0  0  0  0  0
   -0.5203   -0.7506   -6.4125 Si  0  0  0  0  0  4  0  0  0  0  0  0
   -0.1143    0.6723   -6.2503 H   0  0  0  0  0  0  0  0  0  0  0  0
   -1.9099   -0.8245   -6.8918 H   0  0  0  0  0  0  0  0  0  0  0  0
    0.7993   -1.6348   -7.9627 Si  0  0  0  0  0  4  0  0  0  0  0  0
    0.3054   -3.7194   -8.4370 Si  0  0  0  0  0  4  0  0  0  0  0  0
    2.3417   -6.4702   -4.0165 Si  0  0  0  0  0  4  0  0  0  0  0  0
    0.6716   -5.0280   -3.9584 Si  0  0  0  0  0  4  0  0  0  0  0  0
   -0.3949   -5.3248   -4.9020 H   0  0  0  0  0  0  0  0  0  0  0  0
    0.0909   -5.0360   -2.6086 H   0  0  0  0  0  0  0  0  0  0  0  0
   -1.8031   -4.2525   -8.0544 Si  0  0  0  0  0  4  0  0  0  0  0  0
    3.5032   -6.1791   -5.8985 Si  0  0  0  0  0  4  0  0  0  0  0  0
   -2.0423   -6.4286   -8.6041 Si  0  0  0  0  0  4  0  0  0  0  0  0
    3.1907   -7.8638   -7.2844 Si  0  0  0  0  0  4  0  0  0  0  0  0
    0.5779   -3.9521   -9.8834 H   0  0  0  0  0  0  0  0  0  0  0  0
    1.1658   -4.6670   -7.7108 H   0  0  0  0  0  0  0  0  0  0  0  0
   -2.7171   -3.4862   -8.9140 H   0  0  0  0  0  0  0  0  0  0  0  0
   -2.1347   -4.1206   -6.6331 H   0  0  0  0  0  0  0  0  0  0  0  0
    2.9040   -9.0820   -6.5116 H   0  0  0  0  0  0  0  0  0  0  0  0
    4.4126   -8.0614   -8.0743 H   0  0  0  0  0  0  0  0  0  0  0  0
   -0.4753   -7.6686   -7.6375 Si  0  0  0  0  0  4  0  0  0  0  0  0
   -0.3399   -7.3373   -6.2086 H   0  0  0  0  0  0  0  0  0  0  0  0
   -0.9447   -9.0831   -7.6797 H   0  0  0  0  0  0  0  0  0  0  0  0
    1.4777   -7.5295   -8.6699 Si  0  0  0  0  0  4  0  0  0  0  0  0
    1.5267   -8.6210   -9.6847 H   0  0  0  0  0  0  0  0  0  0  0  0
    1.6300   -6.2751   -9.4313 H   0  0  0  0  0  0  0  0  0  0  0  0
   -1.9370   -6.5884  -10.0624 H   0  0  0  0  0  0  0  0  0  0  0  0
   -3.3653   -6.8617   -8.1829 H   0  0  0  0  0  0  0  0  0  0  0  0
    3.2123   -4.8745   -6.4745 H   0  0  0  0  0  0  0  0  0  0  0  0
    4.9437   -6.1619   -5.5140 H   0  0  0  0  0  0  0  0  0  0  0  0
    1.8384   -7.8296   -3.9187 H   0  0  0  0  0  0  0  0  0  0  0  0
    3.1902   -6.2363   -2.8178 H   0  0  0  0  0  0  0  0  0  0  0  0
    0.6914   -0.8147   -9.1786 H   0  0  0  0  0  0  0  0  0  0  0  0
    2.2203   -1.5673   -7.5378 H   0  0  0  0  0  0  0  0  0  0  0  0
  1  2  1  0
  1  5  1  0
  2  3  1  0
  2  4  1  0
  2 11  1  0
  5  6  1  0
  5  7  1  0
  5  8  1  0
  8  9  1  0
  8 36  1  0
  8 37  1  0
  9 14  1  0
  9 18  1  0
  9 19  1  0
 10 11  1  0
 10 15  1  0
 10 34  1  0
 10 35  1  0
 11 12  1  0
 11 13  1  0
 14 16  1  0
 14 20  1  0
 14 21  1  0
 15 17  1  0
 15 32  1  0
 15 33  1  0
 16 24  1  0
 16 30  1  0
 16 31  1  0
 17 22  1  0
 17 23  1  0
 17 27  1  0
 24 25  1  0
 24 26  1  0
 24 27  1  0
 27 28  1  0
 27 29  1  0
M  CHG  1   1   1
M  RAD  1   1   2
M  END
$$$$

     RDKit          3D

 37 37  0  0  0  0  0  0  0  0999 V2000
   -0.3345   -1.6998   -4.5278 S   0  0  0  0  0  2  0  0  0  0  0  0
   -1.7091   -2.9135   -5.6550 Si  0  0  0  0  0  4  0  0  0  0  0  0
   -1.0300   -4.1652   -5.9739 H   0  0  0  0  0  0  0  0  0  0  0  0
   -2.8837   -3.1580   -4.8161 H   0  0  0  0  0  0  0  0  0  0  0  0
    1.6219   -2.5678   -4.5330 Si  0  0  0  0  0  4  0  0  0  0  0  0
    2.5775   -1.6248   -5.1724 H   0  0  0  0  0  0  0  0  0  0  0  0
    2.1027   -2.8713   -3.1877 H   0  0  0  0  0  0  0  0  0  0  0  0
    1.6050   -4.4248   -5.7374 Si  0  0  0  0  0  4  0  0  0  0  0  0
    0.5935   -6.1052   -4.6963 Si  0  0  0  0  0  4  0  0  0  0  0  0
   -1.9229   -3.3138   -9.2979 Si  0  0  0  0  0  4  0  0  0  0  0  0
   -2.2723   -1.9223   -7.5641 Si  0  0  0  0  0  4  0  0  0  0  0  0
   -3.6629   -1.5085   -7.4797 H   0  0  0  0  0  0  0  0  0  0  0  0
   -1.4521   -0.7058   -7.6957 H   0  0  0  0  0  0  0  0  0  0  0  0
    0.4626   -7.8243   -6.1538 Si  0  0  0  0  0  4  0  0  0  0  0  0
   -0.5042   -2.3609  -10.6833 Si  0  0  0  0  0  4  0  0  0  0  0  0
    1.9961   -7.5261   -7.7653 Si  0  0  0  0  0  4  0  0  0  0  0  0
    0.7853   -3.8287  -11.7472 Si  0  0  0  0  0  4  0  0  0  0  0  0
   -0.7243   -5.7483   -4.1866 H   0  0  0  0  0  0  0  0  0  0  0  0
    1.4152   -6.5057   -3.5321 H   0  0  0  0  0  0  0  0  0  0  0  0
   -0.8877   -7.8862   -6.7466 H   0  0  0  0  0  0  0  0  0  0  0  0
    0.7622   -9.0872   -5.4500 H   0  0  0  0  0  0  0  0  0  0  0  0
    1.7074   -3.0387  -12.6124 H   0  0  0  0  0  0  0  0  0  0  0  0
   -0.0087   -4.6608  -12.6532 H   0  0  0  0  0  0  0  0  0  0  0  0
    1.0178   -6.8688   -9.6717 Si  0  0  0  0  0  4  0  0  0  0  0  0
   -0.4192   -6.7009   -9.4814 H   0  0  0  0  0  0  0  0  0  0  0  0
    1.1885   -7.9778  -10.6500 H   0  0  0  0  0  0  0  0  0  0  0  0
    2.0278   -5.0246  -10.3692 Si  0  0  0  0  0  4  0  0  0  0  0  0
    3.2571   -5.4398  -11.1028 H   0  0  0  0  0  0  0  0  0  0  0  0
    2.4010   -4.2289   -9.1849 H   0  0  0  0  0  0  0  0  0  0  0  0
    2.9703   -6.5137   -7.2939 H   0  0  0  0  0  0  0  0  0  0  0  0
    2.7545   -8.7712   -7.9544 H   0  0  0  0  0  0  0  0  0  0  0  0
   -1.2597   -1.6106  -11.6992 H   0  0  0  0  0  0  0  0  0  0  0  0
    0.3310   -1.4110   -9.9423 H   0  0  0  0  0  0  0  0  0  0  0  0
   -3.2387   -3.5066   -9.9634 H   0  0  0  0  0  0  0  0  0  0  0  0
   -1.5018   -4.6108   -8.8038 H   0  0  0  0  0  0  0  0  0  0  0  0
    0.9982   -4.2155   -7.0531 H   0  0  0  0  0  0  0  0  0  0  0  0
    3.0134   -4.8254   -5.9723 H   0  0  0  0  0  0  0  0  0  0  0  0
  1  2  1  0
  1  5  1  0
  2  3  1  0
  2  4  1  0
  2 11  1  0
  5  6  1  0
  5  7  1  0
  5  8  1  0
  8  9  1  0
  8 36  1  0
  8 37  1  0
  9 14  1  0
  9 18  1  0
  9 19  1  0
 10 11  1  0
 10 15  1  0
 10 34  1  0
 10 35  1  0
 11 12  1  0
 11 13  1  0
 14 16  1  0
 14 20  1  0
 14 21  1  0
 15 17  1  0
 15 32  1  0
 15 33  1  0
 16 24  1  0
 16 30  1  0
 16 31  1  0
 17 22  1  0
 17 23  1  0
 17 27  1  0
 24 25  1  0
 24 26  1  0
 24 27  1  0
 27 28  1  0
 27 29  1  0
M  CHG  1   1   1
M  RAD  1   1   2
M  END
$$$$

     RDKit          3D

 37 37  0  0  0  0  0  0  0  0999 V2000
   -0.3345   -1.6998   -4.5278 S   0  0  0  0  0  2  0  0  0  0  0  0
   -1.5512   -1.2751   -6.2183 Si  0  0  0  0  0  4  0  0  0  0  0  0
   -2.8374   -0.6663   -5.7752 H   0  0  0  0  0  0  0  0  0  0  0  0
   -1.8985   -2.4676   -6.9896 H   0  0  0  0  0  0  0  0  0  0  0  0
    0.8379   -3.4913   -4.8202 Si  0  0  0  0  0  4  0  0  0  0  0  0
    0.5364   -4.4974   -3.8224 H   0  0  0  0  0  0  0  0  0  0  0  0
    2.2476   -3.0794   -4.7938 H   0  0  0  0  0  0  0  0  0  0  0  0
    0.3778   -4.3002   -6.8333 Si  0  0  0  0  0  4  0  0  0  0  0  0
    1.0928   -6.3661   -7.1269 Si  0  0  0  0  0  4  0  0  0  0  0  0
    1.5924   -0.1594   -7.6241 Si  0  0  0  0  0  4  0  0  0  0  0  0
   -0.5912    0.2009   -7.5953 Si  0  0  0  0  0  4  0  0  0  0  0  0
   -1.1014   -0.0105   -8.9753 H   0  0  0  0  0  0  0  0  0  0  0  0
   -0.9327    1.5743   -7.2213 H   0  0  0  0  0  0  0  0  0  0  0  0
    3.2327   -6.5940   -7.4449 Si  0  0  0  0  0  4  0  0  0  0  0  0
    2.3836   -0.2499   -9.7275 Si  0  0  0  0  0  4  0  0  0  0  0  0
    4.4453   -4.7952   -7.1068 Si  0  0  0  0  0  4  0  0  0  0  0  0
    1.6204   -2.0739  -10.7763 Si  0  0  0  0  0  4  0  0  0  0  0  0
    0.3654   -6.9173   -8.3079 H   0  0  0  0  0  0  0  0  0  0  0  0
    0.6145   -7.1747   -5.9737 H   0  0  0  0  0  0  0  0  0  0  0  0
    3.7497   -7.6424   -6.5152 H   0  0  0  0  0  0  0  0  0  0  0  0
    3.5458   -7.1237   -8.8037 H   0  0  0  0  0  0  0  0  0  0  0  0
    1.5611   -1.8143  -12.2312 H   0  0  0  0  0  0  0  0  0  0  0  0
    0.2460   -2.3073  -10.3037 H   0  0  0  0  0  0  0  0  0  0  0  0
    4.3257   -3.2926   -8.7198 Si  0  0  0  0  0  4  0  0  0  0  0  0
    5.6562   -3.0197   -9.3372 H   0  0  0  0  0  0  0  0  0  0  0  0
    3.9279   -2.0069   -8.0875 H   0  0  0  0  0  0  0  0  0  0  0  0
    2.9328   -3.8367  -10.3425 Si  0  0  0  0  0  4  0  0  0  0  0  0
    2.0532   -4.9404   -9.9269 H   0  0  0  0  0  0  0  0  0  0  0  0
    3.6130   -4.2696  -11.5711 H   0  0  0  0  0  0  0  0  0  0  0  0
    4.1065   -4.2360   -5.7773 H   0  0  0  0  0  0  0  0  0  0  0  0
    5.8696   -5.2167   -6.9991 H   0  0  0  0  0  0  0  0  0  0  0  0
    2.0221    0.9748  -10.4152 H   0  0  0  0  0  0  0  0  0  0  0  0
    3.8609   -0.3769   -9.6050 H   0  0  0  0  0  0  0  0  0  0  0  0
    2.2530    1.0056   -6.9872 H   0  0  0  0  0  0  0  0  0  0  0  0
    1.9729   -1.3360   -6.8565 H   0  0  0  0  0  0  0  0  0  0  0  0
   -1.1109   -4.3494   -6.9432 H   0  0  0  0  0  0  0  0  0  0  0  0
    0.8402   -3.3655   -7.8348 H   0  0  0  0  0  0  0  0  0  0  0  0
  1  2  1  0
  1  5  1  0
  2  3  1  0
  2  4  1  0
  2 11  1  0
  5  6  1  0
  5  7  1  0
  5  8  1  0
  8  9  1  0
  8 36  1  0
  8 37  1  0
  9 14  1  0
  9 18  1  0
  9 19  1  0
 10 11  1  0
 10 15  1  0
 10 34  1  0
 10 35  1  0
 11 12  1  0
 11 13  1  0
 14 16  1  0
 14 20  1  0
 14 21  1  0
 15 17  1  0
 15 32  1  0
 15 33  1  0
 16 24  1  0
 16 30  1  0
 16 31  1  0
 17 22  1  0
 17 23  1  0
 17 27  1  0
 24 25  1  0
 24 26  1  0
 24 27  1  0
 27 28  1  0
 27 29  1  0
M  CHG  1   1   1
M  RAD  1   1   2
M  END
$$$$

     RDKit          3D

 37 37  0  0  0  0  0  0  0  0999 V2000
   -0.3345   -1.6998   -4.5278 S   0  0  0  0  0  2  0  0  0  0  0  0
   -1.3178   -1.7481   -6.4458 Si  0  0  0  0  0  4  0  0  0  0  0  0
   -0.9252   -0.6110   -7.2803 H   0  0  0  0  0  0  0  0  0  0  0  0
   -2.7668   -1.5962   -6.1754 H   0  0  0  0  0  0  0  0  0  0  0  0
    0.0657   -3.7239   -3.8750 Si  0  0  0  0  0  4  0  0  0  0  0  0
   -0.6392   -4.6875   -4.7108 H   0  0  0  0  0  0  0  0  0  0  0  0
   -0.5027   -3.8582   -2.5038 H   0  0  0  0  0  0  0  0  0  0  0  0
    2.2411   -4.0953   -3.7382 Si  0  0  0  0  0  4  0  0  0  0  0  0
    3.0211   -5.2681   -5.4520 Si  0  0  0  0  0  4  0  0  0  0  0  0
   -0.0147   -3.4325   -9.4515 Si  0  0  0  0  0  4  0  0  0  0  0  0
   -0.9077   -3.7043   -7.4287 Si  0  0  0  0  0  4  0  0  0  0  0  0
   -2.1648   -4.4732   -7.4800 H   0  0  0  0  0  0  0  0  0  0  0  0
    0.0371   -4.4881   -6.6253 H   0  0  0  0  0  0  0  0  0  0  0  0
    2.4983   -7.4226   -5.2593 Si  0  0  0  0  0  4  0  0  0  0  0  0
   -1.5207   -4.1839  -10.9533 Si  0  0  0  0  0  4  0  0  0  0  0  0
    1.8497   -8.3133   -7.1722 Si  0  0  0  0  0  4  0  0  0  0  0  0
   -2.2671   -6.1594  -10.1599 Si  0  0  0  0  0  4  0  0  0  0  0  0
    2.4356   -4.6971   -6.6930 H   0  0  0  0  0  0  0  0  0  0  0  0
    4.4777   -5.0683   -5.5305 H   0  0  0  0  0  0  0  0  0  0  0  0
    1.4927   -7.6491   -4.2230 H   0  0  0  0  0  0  0  0  0  0  0  0
    3.7352   -8.1316   -4.8238 H   0  0  0  0  0  0  0  0  0  0  0  0
   -3.0782   -5.8996   -8.9537 H   0  0  0  0  0  0  0  0  0  0  0  0
   -3.1255   -6.7355  -11.2065 H   0  0  0  0  0  0  0  0  0  0  0  0
   -0.3127   -7.9435   -7.5906 Si  0  0  0  0  0  4  0  0  0  0  0  0
   -1.0865   -9.1972   -7.3623 H   0  0  0  0  0  0  0  0  0  0  0  0
   -0.8844   -6.9335   -6.7190 H   0  0  0  0  0  0  0  0  0  0  0  0
   -0.5159   -7.4449   -9.7512 Si  0  0  0  0  0  4  0  0  0  0  0  0
   -0.6465   -8.6984  -10.5281 H   0  0  0  0  0  0  0  0  0  0  0  0
    0.7497   -6.7934  -10.1794 H   0  0  0  0  0  0  0  0  0  0  0  0
    2.6914   -7.7898   -8.2780 H   0  0  0  0  0  0  0  0  0  0  0  0
    2.0761   -9.7670   -7.1328 H   0  0  0  0  0  0  0  0  0  0  0  0
   -2.6255   -3.1899  -10.9444 H   0  0  0  0  0  0  0  0  0  0  0  0
   -0.9309   -4.3412  -12.2668 H   0  0  0  0  0  0  0  0  0  0  0  0
    0.3494   -2.0474   -9.7162 H   0  0  0  0  0  0  0  0  0  0  0  0
    1.1906   -4.2928   -9.6225 H   0  0  0  0  0  0  0  0  0  0  0  0
    2.9346   -2.8031   -3.7105 H   0  0  0  0  0  0  0  0  0  0  0  0
    2.5782   -4.8027   -2.4877 H   0  0  0  0  0  0  0  0  0  0  0  0
  1  2  1  0
  1  5  1  0
  2  3  1  0
  2  4  1  0
  2 11  1  0
  5  6  1  0
  5  7  1  0
  5  8  1  0
  8  9  1  0
  8 36  1  0
  8 37  1  0
  9 14  1  0
  9 18  1  0
  9 19  1  0
 10 11  1  0
 10 15  1  0
 10 34  1  0
 10 35  1  0
 11 12  1  0
 11 13  1  0
 14 16  1  0
 14 20  1  0
 14 21  1  0
 15 17  1  0
 15 32  1  0
 15 33  1  0
 16 24  1  0
 16 30  1  0
 16 31  1  0
 17 22  1  0
 17 23  1  0
 17 27  1  0
 24 25  1  0
 24 26  1  0
 24 27  1  0
 27 28  1  0
 27 29  1  0
M  CHG  1   1   1
M  RAD  1   1   2
M  END
$$$$

     RDKit          3D

 37 37  0  0  0  0  0  0  0  0999 V2000
   -0.3345   -1.6998   -4.5278 S   0  0  0  0  0  2  0  0  0  0  0  0
    1.7079   -2.3305   -4.4944 Si  0  0  0  0  0  4  0  0  0  0  0  0
    2.3764   -1.5848   -3.3970 H   0  0  0  0  0  0  0  0  0  0  0  0
    2.3882   -2.0996   -5.7574 H   0  0  0  0  0  0  0  0  0  0  0  0
   -0.9417   -0.9794   -6.4252 Si  0  0  0  0  0  4  0  0  0  0  0  0
   -1.0003    0.5062   -6.3532 H   0  0  0  0  0  0  0  0  0  0  0  0
   -2.2647   -1.5172   -6.7812 H   0  0  0  0  0  0  0  0  0  0  0  0
    0.4815   -1.5002   -8.0467 Si  0  0  0  0  0  4  0  0  0  0  0  0
    0.6465   -3.6602   -8.3962 Si  0  0  0  0  0  4  0  0  0  0  0  0
    3.7510   -5.3429   -4.0621 Si  0  0  0  0  0  4  0  0  0  0  0  0
    1.7164   -4.4990   -3.9178 Si  0  0  0  0  0  4  0  0  0  0  0  0
    0.7382   -5.1758   -4.7550 H   0  0  0  0  0  0  0  0  0  0  0  0
    1.2624   -4.6033   -2.5242 H   0  0  0  0  0  0  0  0  0  0  0  0
   -1.1507   -4.8041   -7.8152 Si  0  0  0  0  0  4  0  0  0  0  0  0
    4.6274   -4.8216   -6.0459 Si  0  0  0  0  0  4  0  0  0  0  0  0
   -0.7209   -6.9753   -8.2579 Si  0  0  0  0  0  4  0  0  0  0  0  0
    4.7740   -6.6037   -7.3340 Si  0  0  0  0  0  4  0  0  0  0  0  0
    0.8793   -3.8869   -9.8505 H   0  0  0  0  0  0  0  0  0  0  0  0
    1.8117   -4.2406   -7.7098 H   0  0  0  0  0  0  0  0  0  0  0  0
   -2.3178   -4.4208   -8.6228 H   0  0  0  0  0  0  0  0  0  0  0  0
   -1.4089   -4.6931   -6.3770 H   0  0  0  0  0  0  0  0  0  0  0  0
    4.9442   -7.7984   -6.4931 H   0  0  0  0  0  0  0  0  0  0  0  0
    5.9381   -6.4567   -8.2169 H   0  0  0  0  0  0  0  0  0  0  0  0
    1.2219   -7.5950   -7.3810 Si  0  0  0  0  0  4  0  0  0  0  0  0
    1.3422   -7.1476   -5.9827 H   0  0  0  0  0  0  0  0  0  0  0  0
    1.2261   -9.0850   -7.3284 H   0  0  0  0  0  0  0  0  0  0  0  0
    2.9532   -6.9145   -8.5805 Si  0  0  0  0  0  4  0  0  0  0  0  0
    3.2779   -7.9974   -9.5528 H   0  0  0  0  0  0  0  0  0  0  0  0
    2.6452   -5.7270   -9.4001 H   0  0  0  0  0  0  0  0  0  0  0  0
   -0.6702   -7.1864   -9.7126 H   0  0  0  0  0  0  0  0  0  0  0  0
   -1.8047   -7.7750   -7.7092 H   0  0  0  0  0  0  0  0  0  0  0  0
    3.8972   -3.7143   -6.6451 H   0  0  0  0  0  0  0  0  0  0  0  0
    6.0100   -4.3275   -5.7865 H   0  0  0  0  0  0  0  0  0  0  0  0
    3.7151   -6.7825   -3.8693 H   0  0  0  0  0  0  0  0  0  0  0  0
    4.5606   -4.7780   -2.9499 H   0  0  0  0  0  0  0  0  0  0  0  0
    0.0349   -0.8349   -9.2798 H   0  0  0  0  0  0  0  0  0  0  0  0
    1.8325   -0.9621   -7.7473 H   0  0  0  0  0  0  0  0  0  0  0  0
  1  2  1  0
  1  5  1  0
  2  3  1  0
  2  4  1  0
  2 11  1  0
  5  6  1  0
  5  7  1  0
  5  8  1  0
  8  9  1  0
  8 36  1  0
  8 37  1  0
  9 14  1  0
  9 18  1  0
  9 19  1  0
 10 11  1  0
 10 15  1  0
 10 34  1  0
 10 35  1  0
 11 12  1  0
 11 13  1  0
 14 16  1  0
 14 20  1  0
 14 21  1  0
 15 17  1  0
 15 32  1  0
 15 33  1  0
 16 24  1  0
 16 30  1  0
 16 31  1  0
 17 22  1  0
 17 23  1  0
 17 27  1  0
 24 25  1  0
 24 26  1  0
 24 27  1  0
 27 28  1  0
 27 29  1  0
M  CHG  1   1   1
M  RAD  1   1   2
M  END
$$$$
