
     RDKit          3D

 37 37  0  0  0  0  0  0  0  0999 V2000
    1.1383    0.2722    1.3304 S   0  0  0  0  0  2  0  0  0  0  0  0
    1.5576    1.9183    2.6784 Si  0  0  0  0  0  4  0  0  0  0  0  0
    2.9444    2.3486    2.3863 H   0  0  0  0  0  0  0  0  0  0  0  0
    0.6267    3.0210    2.4672 H   0  0  0  0  0  0  0  0  0  0  0  0
   -0.2869   -1.0719    2.2003 Si  0  0  0  0  0  4  0  0  0  0  0  0
   -1.1748   -1.5607    1.1194 H   0  0  0  0  0  0  0  0  0  0  0  0
   -1.1311   -0.4016    3.1911 H   0  0  0  0  0  0  0  0  0  0  0  0
    0.7221   -2.7824    3.2231 Si  0  0  0  0  0  4  0  0  0  0  0  0
   -0.5123   -3.4860    4.9402 Si  0  0  0  0  0  4  0  0  0  0  0  0
   -0.0634    2.3383    5.9650 Si  0  0  0  0  0  4  0  0  0  0  0  0
    1.5034    1.2400    4.7962 Si  0  0  0  0  0  4  0  0  0  0  0  0
    2.8214    1.4104    5.4597 H   0  0  0  0  0  0  0  0  0  0  0  0
    1.2328   -0.2062    4.7960 H   0  0  0  0  0  0  0  0  0  0  0  0
    0.2436   -2.7519    6.8804 Si  0  0  0  0  0  4  0  0  0  0  0  0
   -1.9930    1.1986    5.9502 Si  0  0  0  0  0  4  0  0  0  0  0  0
   -1.4791   -2.6797    8.3240 Si  0  0  0  0  0  4  0  0  0  0  0  0
   -3.3162    1.7973    7.6188 Si  0  0  0  0  0  4  0  0  0  0  0  0
   -1.9197   -3.0610    4.7557 H   0  0  0  0  0  0  0  0  0  0  0  0
   -0.5460   -4.9727    4.9944 H   0  0  0  0  0  0  0  0  0  0  0  0
    1.3081   -3.6579    7.3957 H   0  0  0  0  0  0  0  0  0  0  0  0
    0.8170   -1.4193    6.8246 H   0  0  0  0  0  0  0  0  0  0  0  0
   -4.7032    1.8940    7.0797 H   0  0  0  0  0  0  0  0  0  0  0  0
   -2.9938    3.1633    8.1071 H   0  0  0  0  0  0  0  0  0  0  0  0
   -1.4271   -0.7607    9.4883 Si  0  0  0  0  0  4  0  0  0  0  0  0
   -1.2197   -1.0954   10.9111 H   0  0  0  0  0  0  0  0  0  0  0  0
   -0.3190    0.0859    9.0146 H   0  0  0  0  0  0  0  0  0  0  0  0
   -3.3468    0.3118    9.2620 Si  0  0  0  0  0  4  0  0  0  0  0  0
   -4.4242   -0.6888    9.0892 H   0  0  0  0  0  0  0  0  0  0  0  0
   -3.6438    1.0282   10.5237 H   0  0  0  0  0  0  0  0  0  0  0  0
   -2.7646   -2.7837    7.6175 H   0  0  0  0  0  0  0  0  0  0  0  0
   -1.3840   -3.8426    9.2157 H   0  0  0  0  0  0  0  0  0  0  0  0
   -1.7240   -0.2430    5.9617 H   0  0  0  0  0  0  0  0  0  0  0  0
   -2.6427    1.4955    4.6418 H   0  0  0  0  0  0  0  0  0  0  0  0
   -0.2614    3.6674    5.3470 H   0  0  0  0  0  0  0  0  0  0  0  0
    0.4137    2.5029    7.3511 H   0  0  0  0  0  0  0  0  0  0  0  0
    0.7851   -3.9031    2.2436 H   0  0  0  0  0  0  0  0  0  0  0  0
    2.0895   -2.4761    3.6042 H   0  0  0  0  0  0  0  0  0  0  0  0
  1  2  1  0
  1  5  1  0
  2  3  1  0
  2  4  1  0
  2 11  1  0
  5  6  1  0
  5  7  1  0
  5  8  1  0
  8  9  1  0
  8 36  1  0
  8 37  1  0
  9 14  1  0
  9 18  1  0
  9 19  1  0
 10 11  1  0
 10 15  1  0
 10 34  1  0
 10 35  1  0
 11 12  1  0
 11 13  1  0
 14 16  1  0
 14 20  1  0
 14 21  1  0
 15 17  1  0
 15 32  1  0
 15 33  1  0
 16 24  1  0
 16 30  1  0
 16 31  1  0
 17 22  1  0
 17 23  1  0
 17 27  1  0
 24 25  1  0
 24 26  1  0
 24 27  1  0
 27 28  1  0
 27 29  1  0
M  CHG  1   1   1
M  RAD  1   1   2
M  END
$$$$

     RDKit          3D

 37 37  0  0  0  0  0  0  0  0999 V2000
    1.1383    0.2722    1.3304 S   0  0  0  0  0  2  0  0  0  0  0  0
    2.0679   -1.1309    2.6977 Si  0  0  0  0  0  4  0  0  0  0  0  0
    1.6223   -2.4782    2.2734 H   0  0  0  0  0  0  0  0  0  0  0  0
    3.5221   -1.0341    2.6420 H   0  0  0  0  0  0  0  0  0  0  0  0
    0.8161    2.1614    2.2906 Si  0  0  0  0  0  4  0  0  0  0  0  0
    1.0615    3.2298    1.2936 H   0  0  0  0  0  0  0  0  0  0  0  0
    1.7492    2.3735    3.3987 H   0  0  0  0  0  0  0  0  0  0  0  0
   -1.2542    2.3159    3.1153 Si  0  0  0  0  0  4  0  0  0  0  0  0
   -1.2642    3.6172    4.9246 Si  0  0  0  0  0  4  0  0  0  0  0  0
    3.0233   -0.2900    6.1598 Si  0  0  0  0  0  4  0  0  0  0  0  0
    1.3390   -0.8123    4.7750 Si  0  0  0  0  0  4  0  0  0  0  0  0
    0.6276   -2.0080    5.2951 H   0  0  0  0  0  0  0  0  0  0  0  0
    0.3422    0.2694    4.7385 H   0  0  0  0  0  0  0  0  0  0  0  0
   -1.3241    2.4544    6.8006 Si  0  0  0  0  0  4  0  0  0  0  0  0
    3.2541    1.9343    6.3070 Si  0  0  0  0  0  4  0  0  0  0  0  0
   -0.3968    3.6982    8.4284 Si  0  0  0  0  0  4  0  0  0  0  0  0
    4.3431    2.5301    8.1380 Si  0  0  0  0  0  4  0  0  0  0  0  0
   -0.0731    4.4985    4.9173 H   0  0  0  0  0  0  0  0  0  0  0  0
   -2.4391    4.5304    4.9139 H   0  0  0  0  0  0  0  0  0  0  0  0
   -2.7313    2.1144    7.1523 H   0  0  0  0  0  0  0  0  0  0  0  0
   -0.5914    1.2023    6.7427 H   0  0  0  0  0  0  0  0  0  0  0  0
    5.2962    3.6134    7.7613 H   0  0  0  0  0  0  0  0  0  0  0  0
    5.1948    1.4250    8.6497 H   0  0  0  0  0  0  0  0  0  0  0  0
    0.9873    2.4366    9.6666 Si  0  0  0  0  0  4  0  0  0  0  0  0
    0.4502    2.3834   11.0407 H   0  0  0  0  0  0  0  0  0  0  0  0
    1.0582    1.0740    9.1121 H   0  0  0  0  0  0  0  0  0  0  0  0
    3.0036    3.3421    9.7044 Si  0  0  0  0  0  4  0  0  0  0  0  0
    2.8581    4.8123    9.6065 H   0  0  0  0  0  0  0  0  0  0  0  0
    3.6221    3.0729   11.0229 H   0  0  0  0  0  0  0  0  0  0  0  0
    0.3530    4.8309    7.8650 H   0  0  0  0  0  0  0  0  0  0  0  0
   -1.4751    4.2632    9.2497 H   0  0  0  0  0  0  0  0  0  0  0  0
    1.9408    2.5813    6.2224 H   0  0  0  0  0  0  0  0  0  0  0  0
    4.0107    2.3563    5.0939 H   0  0  0  0  0  0  0  0  0  0  0  0
    4.2672   -0.8891    5.6293 H   0  0  0  0  0  0  0  0  0  0  0  0
    2.7299   -0.8551    7.4904 H   0  0  0  0  0  0  0  0  0  0  0  0
   -2.0868    2.9967    2.0844 H   0  0  0  0  0  0  0  0  0  0  0  0
   -1.8570    1.0168    3.3558 H   0  0  0  0  0  0  0  0  0  0  0  0
  1  2  1  0
  1  5  1  0
  2  3  1  0
  2  4  1  0
  2 11  1  0
  5  6  1  0
  5  7  1  0
  5  8  1  0
  8  9  1  0
  8 36  1  0
  8 37  1  0
  9 14  1  0
  9 18  1  0
  9 19  1  0
 10 11  1  0
 10 15  1  0
 10 34  1  0
 10 35  1  0
 11 12  1  0
 11 13  1  0
 14 16  1  0
 14 20  1  0
 14 21  1  0
 15 17  1  0
 15 32  1  0
 15 33  1  0
 16 24  1  0
 16 30  1  0
 16 31  1  0
 17 22  1  0
 17 23  1  0
 17 27  1  0
 24 25  1  0
 24 26  1  0
 24 27  1  0
 27 28  1  0
 27 29  1  0
M  CHG  1   1   1
M  RAD  1   1   2
M  END
$$$$

     RDKit          3D

 37 37  0  0  0  0  0  0  0  0999 V2000
    1.1383    0.2722    1.3304 S   0  0  0  0  0  2  0  0  0  0  0  0
    1.7435    1.8490    2.6905 Si  0  0  0  0  0  4  0  0  0  0  0  0
    3.1704    2.1199    2.4004 H   0  0  0  0  0  0  0  0  0  0  0  0
    0.9448    3.0526    2.4887 H   0  0  0  0  0  0  0  0  0  0  0  0
   -0.4313   -0.9066    2.1914 Si  0  0  0  0  0  4  0  0  0  0  0  0
   -1.3694   -1.2822    1.1077 H   0  0  0  0  0  0  0  0  0  0  0  0
   -1.1931   -0.1518    3.1881 H   0  0  0  0  0  0  0  0  0  0  0  0
    0.3755   -2.7292    3.2000 Si  0  0  0  0  0  4  0  0  0  0  0  0
   -0.9312   -3.3002    4.9129 Si  0  0  0  0  0  4  0  0  0  0  0  0
    0.1815    2.4263    5.9820 Si  0  0  0  0  0  4  0  0  0  0  0  0
    1.6122    1.1650    4.8032 Si  0  0  0  0  0  4  0  0  0  0  0  0
    2.9411    1.1783    5.4666 H   0  0  0  0  0  0  0  0  0  0  0  0
    1.1778   -0.2407    4.7922 H   0  0  0  0  0  0  0  0  0  0  0  0
   -0.0960   -2.6725    6.8579 Si  0  0  0  0  0  4  0  0  0  0  0  0
   -1.8658    1.5151    5.9603 Si  0  0  0  0  0  4  0  0  0  0  0  0
   -1.7989   -2.4147    8.3038 Si  0  0  0  0  0  4  0  0  0  0  0  0
   -3.1116    2.2484    7.6348 Si  0  0  0  0  0  4  0  0  0  0  0  0
   -2.2808   -2.7155    4.7331 H   0  0  0  0  0  0  0  0  0  0  0  0
   -1.1348   -4.7736    4.9558 H   0  0  0  0  0  0  0  0  0  0  0  0
    0.8579   -3.6983    7.3652 H   0  0  0  0  0  0  0  0  0  0  0  0
    0.6261   -1.4138    6.8117 H   0  0  0  0  0  0  0  0  0  0  0  0
   -4.4785    2.5074    7.0979 H   0  0  0  0  0  0  0  0  0  0  0  0
   -2.6349    3.5648    8.1332 H   0  0  0  0  0  0  0  0  0  0  0  0
   -1.5275   -0.5234    9.4827 Si  0  0  0  0  0  4  0  0  0  0  0  0
   -1.3595   -0.8906   10.9027 H   0  0  0  0  0  0  0  0  0  0  0  0
   -0.3298    0.1944    9.0144 H   0  0  0  0  0  0  0  0  0  0  0  0
   -3.3118    0.7636    9.2666 Si  0  0  0  0  0  4  0  0  0  0  0  0
   -4.4967   -0.1058    9.0872 H   0  0  0  0  0  0  0  0  0  0  0  0
   -3.5247    1.4995   10.5341 H   0  0  0  0  0  0  0  0  0  0  0  0
   -3.0879   -2.3654    7.5979 H   0  0  0  0  0  0  0  0  0  0  0  0
   -1.8375   -3.5877    9.1865 H   0  0  0  0  0  0  0  0  0  0  0  0
   -1.7635    0.0522    5.9605 H   0  0  0  0  0  0  0  0  0  0  0  0
   -2.4774    1.8946    4.6549 H   0  0  0  0  0  0  0  0  0  0  0  0
    0.1369    3.7741    5.3743 H   0  0  0  0  0  0  0  0  0  0  0  0
    0.6745    2.5246    7.3688 H   0  0  0  0  0  0  0  0  0  0  0  0
    0.3096   -3.8422    2.2119 H   0  0  0  0  0  0  0  0  0  0  0  0
    1.7690   -2.5844    3.5821 H   0  0  0  0  0  0  0  0  0  0  0  0
  1  2  1  0
  1  5  1  0
  2  3  1  0
  2  4  1  0
  2 11  1  0
  5  6  1  0
  5  7  1  0
  5  8  1  0
  8  9  1  0
  8 36  1  0
  8 37  1  0
  9 14  1  0
  9 18  1  0
  9 19  1  0
 10 11  1  0
 10 15  1  0
 10 34  1  0
 10 35  1  0
 11 12  1  0
 11 13  1  0
 14 16  1  0
 14 20  1  0
 14 21  1  0
 15 17  1  0
 15 32  1  0
 15 33  1  0
 16 24  1  0
 16 30  1  0
 16 31  1  0
 17 22  1  0
 17 23  1  0
 17 27  1  0
 24 25  1  0
 24 26  1  0
 24 27  1  0
 27 28  1  0
 27 29  1  0
M  CHG  1   1   1
M  RAD  1   1   2
M  END
$$$$

     RDKit          3D

 37 37  0  0  0  0  0  0  0  0999 V2000
    1.1383    0.2722    1.3304 S   0  0  0  0  0  2  0  0  0  0  0  0
    1.4840    1.9392    2.6735 Si  0  0  0  0  0  4  0  0  0  0  0  0
    2.8505    2.4296    2.3804 H   0  0  0  0  0  0  0  0  0  0  0  0
    0.5053    2.9990    2.4589 H   0  0  0  0  0  0  0  0  0  0  0  0
   -0.2263   -1.1310    2.2041 Si  0  0  0  0  0  4  0  0  0  0  0  0
   -1.0914   -1.6619    1.1245 H   0  0  0  0  0  0  0  0  0  0  0  0
   -1.0996   -0.4958    3.1927 H   0  0  0  0  0  0  0  0  0  0  0  0
    0.8571   -2.7922    3.2321 Si  0  0  0  0  0  4  0  0  0  0  0  0
   -0.3455   -3.5446    4.9511 Si  0  0  0  0  0  4  0  0  0  0  0  0
   -0.1550    2.2969    5.9587 Si  0  0  0  0  0  4  0  0  0  0  0  0
    1.4593    1.2655    4.7934 Si  0  0  0  0  0  4  0  0  0  0  0  0
    2.7682    1.4960    5.4565 H   0  0  0  0  0  0  0  0  0  0  0  0
    1.2528   -0.1913    4.7975 H   0  0  0  0  0  0  0  0  0  0  0  0
    0.3766   -2.7720    6.8892 Si  0  0  0  0  0  4  0  0  0  0  0  0
   -2.0322    1.0729    5.9469 Si  0  0  0  0  0  4  0  0  0  0  0  0
   -1.3479   -2.7718    8.3324 Si  0  0  0  0  0  4  0  0  0  0  0  0
   -3.3811    1.6174    7.6136 Si  0  0  0  0  0  4  0  0  0  0  0  0
   -1.7703   -3.1828    4.7651 H   0  0  0  0  0  0  0  0  0  0  0  0
   -0.3134   -5.0312    5.0098 H   0  0  0  0  0  0  0  0  0  0  0  0
    1.4801   -3.6285    7.4074 H   0  0  0  0  0  0  0  0  0  0  0  0
    0.8905   -1.4155    6.8295 H   0  0  0  0  0  0  0  0  0  0  0  0
   -4.7709    1.6511    7.0740 H   0  0  0  0  0  0  0  0  0  0  0  0
   -3.1196    2.9978    8.0978 H   0  0  0  0  0  0  0  0  0  0  0  0
   -1.3812   -0.8489    9.4909 Si  0  0  0  0  0  4  0  0  0  0  0  0
   -1.1596   -1.1699   10.9148 H   0  0  0  0  0  0  0  0  0  0  0  0
   -0.3115    0.0444    9.0149 H   0  0  0  0  0  0  0  0  0  0  0  0
   -3.3464    0.1370    9.2612 Si  0  0  0  0  0  4  0  0  0  0  0  0
   -4.3785   -0.9109    9.0912 H   0  0  0  0  0  0  0  0  0  0  0  0
   -3.6752    0.8433   10.5207 H   0  0  0  0  0  0  0  0  0  0  0  0
   -2.6274   -2.9346    7.6260 H   0  0  0  0  0  0  0  0  0  0  0  0
   -1.2018   -3.9267    9.2276 H   0  0  0  0  0  0  0  0  0  0  0  0
   -1.6997   -0.3553    5.9628 H   0  0  0  0  0  0  0  0  0  0  0  0
   -2.6941    1.3369    4.6375 H   0  0  0  0  0  0  0  0  0  0  0  0
   -0.4114    3.6141    5.3366 H   0  0  0  0  0  0  0  0  0  0  0  0
    0.3140    2.4866    7.3443 H   0  0  0  0  0  0  0  0  0  0  0  0
    0.9699   -3.9119    2.2560 H   0  0  0  0  0  0  0  0  0  0  0  0
    2.2095   -2.4246    3.6125 H   0  0  0  0  0  0  0  0  0  0  0  0
  1  2  1  0
  1  5  1  0
  2  3  1  0
  2  4  1  0
  2 11  1  0
  5  6  1  0
  5  7  1  0
  5  8  1  0
  8  9  1  0
  8 36  1  0
  8 37  1  0
  9 14  1  0
  9 18  1  0
  9 19  1  0
 10 11  1  0
 10 15  1  0
 10 34  1  0
 10 35  1  0
 11 12  1  0
 11 13  1  0
 14 16  1  0
 14 20  1  0
 14 21  1  0
 15 17  1  0
 15 32  1  0
 15 33  1  0
 16 24  1  0
 16 30  1  0
 16 31  1  0
 17 22  1  0
 17 23  1  0
 17 27  1  0
 24 25  1  0
 24 26  1  0
 24 27  1  0
 27 28  1  0
 27 29  1  0
M  CHG  1   1   1
M  RAD  1   1   2
M  END
$$$$
