
     RDKit          3D

 37 37  0  0  0  0  0  0  0  0999 V2000
    0.0494   -0.0677    1.0581 S   0  0  0  0  0  2  0  0  0  0  0  0
    1.5373    0.7518    2.3446 Si  0  0  0  0  0  4  0  0  0  0  0  0
    1.1376    1.9952    2.9719 H   0  0  0  0  0  0  0  0  0  0  0  0
    2.7426    1.0501    1.5198 H   0  0  0  0  0  0  0  0  0  0  0  0
   -1.9137    0.0647    1.9226 Si  0  0  0  0  0  4  0  0  0  0  0  0
   -2.0470    1.3102    2.6497 H   0  0  0  0  0  0  0  0  0  0  0  0
   -2.8799    0.0666    0.7960 H   0  0  0  0  0  0  0  0  0  0  0  0
   -2.3699   -1.7247    3.1768 Si  0  0  0  0  0  4  0  0  0  0  0  0
   -2.0454   -1.3607    5.3225 Si  0  0  0  0  0  4  0  0  0  0  0  0
    2.9494    0.0895    5.6847 Si  0  0  0  0  0  4  0  0  0  0  0  0
    2.1487   -0.8014    3.8268 Si  0  0  0  0  0  4  0  0  0  0  0  0
    3.1983   -1.6540    3.1993 H   0  0  0  0  0  0  0  0  0  0  0  0
    1.0009   -1.6761    4.0647 H   0  0  0  0  0  0  0  0  0  0  0  0
   -3.6998   -0.2706    6.3035 Si  0  0  0  0  0  4  0  0  0  0  0  0
    2.2768    2.1741    6.0027 Si  0  0  0  0  0  4  0  0  0  0  0  0
   -4.2910    1.5643    5.2358 Si  0  0  0  0  0  4  0  0  0  0  0  0
    0.2193    2.2785    6.8511 Si  0  0  0  0  0  4  0  0  0  0  0  0
   -0.7428   -0.7007    5.5016 H   0  0  0  0  0  0  0  0  0  0  0  0
   -1.9234   -2.6850    5.9974 H   0  0  0  0  0  0  0  0  0  0  0  0
   -4.8424   -1.1757    6.4896 H   0  0  0  0  0  0  0  0  0  0  0  0
   -3.2451    0.1088    7.6626 H   0  0  0  0  0  0  0  0  0  0  0  0
   -0.3058    0.9592    7.1859 H   0  0  0  0  0  0  0  0  0  0  0  0
    0.2058    3.0718    8.1099 H   0  0  0  0  0  0  0  0  0  0  0  0
   -3.2020    3.3638    6.0016 Si  0  0  0  0  0  4  0  0  0  0  0  0
   -3.8503    4.5485    5.3725 H   0  0  0  0  0  0  0  0  0  0  0  0
   -3.3398    3.4758    7.4417 H   0  0  0  0  0  0  0  0  0  0  0  0
   -1.0751    3.3648    5.3933 Si  0  0  0  0  0  4  0  0  0  0  0  0
   -0.6136    4.7827    5.3889 H   0  0  0  0  0  0  0  0  0  0  0  0
   -0.8570    2.8489    4.0555 H   0  0  0  0  0  0  0  0  0  0  0  0
   -4.1544    1.4755    3.7862 H   0  0  0  0  0  0  0  0  0  0  0  0
   -5.7376    1.8051    5.5075 H   0  0  0  0  0  0  0  0  0  0  0  0
    2.3765    2.8911    4.7159 H   0  0  0  0  0  0  0  0  0  0  0  0
    3.2029    2.8241    6.9707 H   0  0  0  0  0  0  0  0  0  0  0  0
    4.4366    0.1084    5.5872 H   0  0  0  0  0  0  0  0  0  0  0  0
    2.6099   -0.7716    6.8423 H   0  0  0  0  0  0  0  0  0  0  0  0
   -1.4123   -2.7860    2.7472 H   0  0  0  0  0  0  0  0  0  0  0  0
   -3.7080   -2.2489    2.8864 H   0  0  0  0  0  0  0  0  0  0  0  0
  1  2  1  0
  1  5  1  0
  2  3  1  0
  2  4  1  0
  2 11  1  0
  5  6  1  0
  5  7  1  0
  5  8  1  0
  8  9  1  0
  8 36  1  0
  8 37  1  0
  9 14  1  0
  9 18  1  0
  9 19  1  0
 10 11  1  0
 10 15  1  0
 10 34  1  0
 10 35  1  0
 11 12  1  0
 11 13  1  0
 14 16  1  0
 14 20  1  0
 14 21  1  0
 15 17  1  0
 15 32  1  0
 15 33  1  0
 16 24  1  0
 16 30  1  0
 16 31  1  0
 17 22  1  0
 17 23  1  0
 17 27  1  0
 24 25  1  0
 24 26  1  0
 24 27  1  0
 27 28  1  0
 27 29  1  0
M  CHG  1   1   1
M  RAD  1   1   2
M  END
$$$$

     RDKit          3D

 37 37  0  0  0  0  0  0  0  0999 V2000
    0.0494   -0.0677    1.0581 S   0  0  0  0  0  2  0  0  0  0  0  0
    1.3915    0.1051    2.6882 Si  0  0  0  0  0  4  0  0  0  0  0  0
    2.5742    0.8721    2.2335 H   0  0  0  0  0  0  0  0  0  0  0  0
    0.8343    0.8244    3.8300 H   0  0  0  0  0  0  0  0  0  0  0  0
   -1.8278   -0.8973    1.6257 Si  0  0  0  0  0  4  0  0  0  0  0  0
   -1.7135   -2.2536    2.1680 H   0  0  0  0  0  0  0  0  0  0  0  0
   -2.6512   -1.0147    0.3894 H   0  0  0  0  0  0  0  0  0  0  0  0
   -2.9367    0.3748    3.0522 Si  0  0  0  0  0  4  0  0  0  0  0  0
   -2.2478    0.1252    5.1445 Si  0  0  0  0  0  4  0  0  0  0  0  0
    3.8389   -1.4776    4.8025 Si  0  0  0  0  0  4  0  0  0  0  0  0
    2.1602   -1.8973    3.3572 Si  0  0  0  0  0  4  0  0  0  0  0  0
    2.6143   -2.6800    2.2244 H   0  0  0  0  0  0  0  0  0  0  0  0
    1.1141   -2.6159    4.0916 H   0  0  0  0  0  0  0  0  0  0  0  0
   -2.1843   -2.0186    5.7493 Si  0  0  0  0  0  4  0  0  0  0  0  0
    3.1392    0.1197    6.1871 Si  0  0  0  0  0  4  0  0  0  0  0  0
   -1.6558   -2.0797    7.9402 Si  0  0  0  0  0  4  0  0  0  0  0  0
    3.4829   -0.4646    8.3149 Si  0  0  0  0  0  4  0  0  0  0  0  0
   -0.9708    0.7789    5.4110 H   0  0  0  0  0  0  0  0  0  0  0  0
   -3.2515    0.7907    6.0242 H   0  0  0  0  0  0  0  0  0  0  0  0
   -1.2433   -2.7931    4.9603 H   0  0  0  0  0  0  0  0  0  0  0  0
   -3.5293   -2.5976    5.6193 H   0  0  0  0  0  0  0  0  0  0  0  0
    4.3712   -1.6209    8.3275 H   0  0  0  0  0  0  0  0  0  0  0  0
    4.0796    0.6753    8.9999 H   0  0  0  0  0  0  0  0  0  0  0  0
    0.4897   -2.5799    8.2170 Si  0  0  0  0  0  4  0  0  0  0  0  0
    1.1321   -2.8276    6.9114 H   0  0  0  0  0  0  0  0  0  0  0  0
    0.6463   -3.8140    9.0182 H   0  0  0  0  0  0  0  0  0  0  0  0
    1.5427   -0.9467    9.3246 Si  0  0  0  0  0  4  0  0  0  0  0  0
    1.8562   -1.3508   10.6972 H   0  0  0  0  0  0  0  0  0  0  0  0
    0.7068    0.2528    9.3225 H   0  0  0  0  0  0  0  0  0  0  0  0
   -1.9297   -0.7839    8.5780 H   0  0  0  0  0  0  0  0  0  0  0  0
   -2.4729   -3.0821    8.6203 H   0  0  0  0  0  0  0  0  0  0  0  0
    3.8080    1.4055    5.8770 H   0  0  0  0  0  0  0  0  0  0  0  0
    1.6879    0.3761    6.0387 H   0  0  0  0  0  0  0  0  0  0  0  0
    4.2424   -2.6880    5.5095 H   0  0  0  0  0  0  0  0  0  0  0  0
    4.9537   -0.9308    3.9861 H   0  0  0  0  0  0  0  0  0  0  0  0
   -2.8962    1.7878    2.7098 H   0  0  0  0  0  0  0  0  0  0  0  0
   -4.3690   -0.0348    3.0045 H   0  0  0  0  0  0  0  0  0  0  0  0
  1  2  1  0
  1  5  1  0
  2  3  1  0
  2  4  1  0
  2 11  1  0
  5  6  1  0
  5  7  1  0
  5  8  1  0
  8  9  1  0
  8 36  1  0
  8 37  1  0
  9 14  1  0
  9 18  1  0
  9 19  1  0
 10 11  1  0
 10 15  1  0
 10 34  1  0
 10 35  1  0
 11 12  1  0
 11 13  1  0
 14 16  1  0
 14 20  1  0
 14 21  1  0
 15 17  1  0
 15 32  1  0
 15 33  1  0
 16 24  1  0
 16 30  1  0
 16 31  1  0
 17 22  1  0
 17 23  1  0
 17 27  1  0
 24 25  1  0
 24 26  1  0
 24 27  1  0
 27 28  1  0
 27 29  1  0
M  CHG  1   1   1
M  RAD  1   1   2
M  END
$$$$

     RDKit          3D

 37 37  0  0  0  0  0  0  0  0999 V2000
    0.0494   -0.0677    1.0581 S   0  0  0  0  0  2  0  0  0  0  0  0
   -1.9632    0.4741    1.5037 Si  0  0  0  0  0  4  0  0  0  0  0  0
   -2.5736   -0.4763    2.4339 H   0  0  0  0  0  0  0  0  0  0  0  0
   -2.7182    0.4902    0.2344 H   0  0  0  0  0  0  0  0  0  0  0  0
    1.1838   -0.4887    2.8098 Si  0  0  0  0  0  4  0  0  0  0  0  0
    1.7116    0.7890    3.3429 H   0  0  0  0  0  0  0  0  0  0  0  0
    2.3392   -1.3130    2.4505 H   0  0  0  0  0  0  0  0  0  0  0  0
   -0.0608   -1.5279    4.3658 Si  0  0  0  0  0  4  0  0  0  0  0  0
    0.5603   -0.7153    6.3569 Si  0  0  0  0  0  4  0  0  0  0  0  0
   -2.1005    2.4897    4.5824 Si  0  0  0  0  0  4  0  0  0  0  0  0
   -2.0660    2.5327    2.3610 Si  0  0  0  0  0  4  0  0  0  0  0  0
   -0.9508    3.3651    1.9190 H   0  0  0  0  0  0  0  0  0  0  0  0
   -3.3068    3.1909    1.9006 H   0  0  0  0  0  0  0  0  0  0  0  0
   -1.1092   -0.8634    7.8012 Si  0  0  0  0  0  4  0  0  0  0  0  0
   -0.4562    3.7519    5.4476 Si  0  0  0  0  0  4  0  0  0  0  0  0
   -0.5663    0.0150    9.7493 Si  0  0  0  0  0  4  0  0  0  0  0  0
   -0.3645    3.4138    7.6442 Si  0  0  0  0  0  4  0  0  0  0  0  0
    1.7097   -1.4844    6.8407 H   0  0  0  0  0  0  0  0  0  0  0  0
    0.8902    0.7013    6.1627 H   0  0  0  0  0  0  0  0  0  0  0  0
   -1.5267   -2.2845    7.9401 H   0  0  0  0  0  0  0  0  0  0  0  0
   -2.2687   -0.1408    7.2632 H   0  0  0  0  0  0  0  0  0  0  0  0
   -0.6610    4.7158    8.2995 H   0  0  0  0  0  0  0  0  0  0  0  0
   -1.4213    2.4925    8.0614 H   0  0  0  0  0  0  0  0  0  0  0  0
    1.4430    0.9690    9.7338 Si  0  0  0  0  0  4  0  0  0  0  0  0
    1.7275    1.4219   11.1135 H   0  0  0  0  0  0  0  0  0  0  0  0
    2.4521   -0.0485    9.3976 H   0  0  0  0  0  0  0  0  0  0  0  0
    1.5935    2.6323    8.3024 Si  0  0  0  0  0  4  0  0  0  0  0  0
    2.3329    3.7465    8.9613 H   0  0  0  0  0  0  0  0  0  0  0  0
    2.4453    2.2450    7.1418 H   0  0  0  0  0  0  0  0  0  0  0  0
   -0.5116   -1.0857   10.7501 H   0  0  0  0  0  0  0  0  0  0  0  0
   -1.5798    0.9636   10.2500 H   0  0  0  0  0  0  0  0  0  0  0  0
   -0.7719    5.1532    5.1141 H   0  0  0  0  0  0  0  0  0  0  0  0
    0.7801    3.3962    4.7662 H   0  0  0  0  0  0  0  0  0  0  0  0
   -1.9868    1.1229    5.1176 H   0  0  0  0  0  0  0  0  0  0  0  0
   -3.3696    3.0382    5.1180 H   0  0  0  0  0  0  0  0  0  0  0  0
    0.3035   -2.9540    4.3227 H   0  0  0  0  0  0  0  0  0  0  0  0
   -1.4852   -1.3209    4.1388 H   0  0  0  0  0  0  0  0  0  0  0  0
  1  2  1  0
  1  5  1  0
  2  3  1  0
  2  4  1  0
  2 11  1  0
  5  6  1  0
  5  7  1  0
  5  8  1  0
  8  9  1  0
  8 36  1  0
  8 37  1  0
  9 14  1  0
  9 18  1  0
  9 19  1  0
 10 11  1  0
 10 15  1  0
 10 34  1  0
 10 35  1  0
 11 12  1  0
 11 13  1  0
 14 16  1  0
 14 20  1  0
 14 21  1  0
 15 17  1  0
 15 32  1  0
 15 33  1  0
 16 24  1  0
 16 30  1  0
 16 31  1  0
 17 22  1  0
 17 23  1  0
 17 27  1  0
 24 25  1  0
 24 26  1  0
 24 27  1  0
 27 28  1  0
 27 29  1  0
M  CHG  1   1   1
M  RAD  1   1   2
M  END
$$$$

     RDKit          3D

 37 37  0  0  0  0  0  0  0  0999 V2000
    0.0494   -0.0677    1.0581 S   0  0  0  0  0  2  0  0  0  0  0  0
   -1.4393   -1.2325    2.0470 Si  0  0  0  0  0  4  0  0  0  0  0  0
   -0.9571   -2.6291    2.1060 H   0  0  0  0  0  0  0  0  0  0  0  0
   -2.6918   -1.2190    1.2755 H   0  0  0  0  0  0  0  0  0  0  0  0
    0.5567    1.6965    2.1315 Si  0  0  0  0  0  4  0  0  0  0  0  0
    0.6420    2.8276    1.1902 H   0  0  0  0  0  0  0  0  0  0  0  0
   -0.4109    2.0529    3.1574 H   0  0  0  0  0  0  0  0  0  0  0  0
    2.5679    1.5133    3.1168 Si  0  0  0  0  0  4  0  0  0  0  0  0
    2.9190    3.3723    4.2789 Si  0  0  0  0  0  4  0  0  0  0  0  0
   -3.2420    1.2547    4.0347 Si  0  0  0  0  0  4  0  0  0  0  0  0
   -1.8631   -0.4947    4.0991 Si  0  0  0  0  0  4  0  0  0  0  0  0
   -0.6535   -0.1013    4.8194 H   0  0  0  0  0  0  0  0  0  0  0  0
   -2.5632   -1.5719    4.8427 H   0  0  0  0  0  0  0  0  0  0  0  0
    3.8215    2.9962    6.2535 Si  0  0  0  0  0  4  0  0  0  0  0  0
   -3.4676    2.0988    6.0694 Si  0  0  0  0  0  4  0  0  0  0  0  0
    3.6416    0.8740    6.8938 Si  0  0  0  0  0  4  0  0  0  0  0  0
   -1.9265    1.3172    7.4776 Si  0  0  0  0  0  4  0  0  0  0  0  0
    1.6496    4.1159    4.4830 H   0  0  0  0  0  0  0  0  0  0  0  0
    3.7986    4.2462    3.4657 H   0  0  0  0  0  0  0  0  0  0  0  0
    5.2609    3.3303    6.2240 H   0  0  0  0  0  0  0  0  0  0  0  0
    3.1817    3.8289    7.2958 H   0  0  0  0  0  0  0  0  0  0  0  0
   -2.2330    1.8718    8.8132 H   0  0  0  0  0  0  0  0  0  0  0  0
   -1.9667   -0.1363    7.5953 H   0  0  0  0  0  0  0  0  0  0  0  0
    1.5418    0.2916    7.3007 Si  0  0  0  0  0  4  0  0  0  0  0  0
    1.3819   -0.2501    8.6626 H   0  0  0  0  0  0  0  0  0  0  0  0
    1.1906   -0.8046    6.3648 H   0  0  0  0  0  0  0  0  0  0  0  0
    0.1198    1.9702    6.9176 Si  0  0  0  0  0  4  0  0  0  0  0  0
    0.1391    2.2515    5.4850 H   0  0  0  0  0  0  0  0  0  0  0  0
    0.5193    3.1920    7.6256 H   0  0  0  0  0  0  0  0  0  0  0  0
    4.4023    0.7344    8.1632 H   0  0  0  0  0  0  0  0  0  0  0  0
    4.2748    0.0132    5.8926 H   0  0  0  0  0  0  0  0  0  0  0  0
   -3.3952    3.5552    6.0595 H   0  0  0  0  0  0  0  0  0  0  0  0
   -4.7860    1.7082    6.5962 H   0  0  0  0  0  0  0  0  0  0  0  0
   -4.5514    0.7559    3.5334 H   0  0  0  0  0  0  0  0  0  0  0  0
   -2.7994    2.2671    3.0562 H   0  0  0  0  0  0  0  0  0  0  0  0
    3.5528    1.3580    2.0180 H   0  0  0  0  0  0  0  0  0  0  0  0
    2.6506    0.3082    3.9318 H   0  0  0  0  0  0  0  0  0  0  0  0
  1  2  1  0
  1  5  1  0
  2  3  1  0
  2  4  1  0
  2 11  1  0
  5  6  1  0
  5  7  1  0
  5  8  1  0
  8  9  1  0
  8 36  1  0
  8 37  1  0
  9 14  1  0
  9 18  1  0
  9 19  1  0
 10 11  1  0
 10 15  1  0
 10 34  1  0
 10 35  1  0
 11 12  1  0
 11 13  1  0
 14 16  1  0
 14 20  1  0
 14 21  1  0
 15 17  1  0
 15 32  1  0
 15 33  1  0
 16 24  1  0
 16 30  1  0
 16 31  1  0
 17 22  1  0
 17 23  1  0
 17 27  1  0
 24 25  1  0
 24 26  1  0
 24 27  1  0
 27 28  1  0
 27 29  1  0
M  CHG  1   1   1
M  RAD  1   1   2
M  END
$$$$

     RDKit          3D

 37 37  0  0  0  0  0  0  0  0999 V2000
    0.0494   -0.0677    1.0581 S   0  0  0  0  0  2  0  0  0  0  0  0
   -0.9980    0.8357    2.6628 Si  0  0  0  0  0  4  0  0  0  0  0  0
   -2.3992    1.0539    2.2353 H   0  0  0  0  0  0  0  0  0  0  0  0
   -1.0466    0.0112    3.8666 H   0  0  0  0  0  0  0  0  0  0  0  0
    2.0039   -0.7067    1.6108 Si  0  0  0  0  0  4  0  0  0  0  0  0
    2.8630    0.3953    2.0515 H   0  0  0  0  0  0  0  0  0  0  0  0
    2.6469   -1.2691    0.3900 H   0  0  0  0  0  0  0  0  0  0  0  0
    1.9898   -2.2903    3.1519 Si  0  0  0  0  0  4  0  0  0  0  0  0
    1.7220   -1.4936    5.2032 Si  0  0  0  0  0  4  0  0  0  0  0  0
   -1.6394    3.8043    4.5970 Si  0  0  0  0  0  4  0  0  0  0  0  0
   -0.1720    2.8634    3.1672 Si  0  0  0  0  0  4  0  0  0  0  0  0
   -0.0045    3.6643    1.9703 H   0  0  0  0  0  0  0  0  0  0  0  0
    1.1052    2.7227    3.8737 H   0  0  0  0  0  0  0  0  0  0  0  0
    3.1575    0.1510    5.6509 Si  0  0  0  0  0  4  0  0  0  0  0  0
   -2.1756    2.2606    6.1095 Si  0  0  0  0  0  4  0  0  0  0  0  0
    2.8813    0.7079    7.8181 Si  0  0  0  0  0  4  0  0  0  0  0  0
   -1.9618    3.0676    8.1807 Si  0  0  0  0  0  4  0  0  0  0  0  0
    0.3516   -1.0787    5.4843 H   0  0  0  0  0  0  0  0  0  0  0  0
    2.0280   -2.6019    6.1529 H   0  0  0  0  0  0  0  0  0  0  0  0
    2.9745    1.3021    4.7854 H   0  0  0  0  0  0  0  0  0  0  0  0
    4.5308   -0.3551    5.5129 H   0  0  0  0  0  0  0  0  0  0  0  0
   -1.8208    4.5160    8.0885 H   0  0  0  0  0  0  0  0  0  0  0  0
   -3.1542    2.6933    8.9308 H   0  0  0  0  0  0  0  0  0  0  0  0
    1.6647    2.5558    8.0052 Si  0  0  0  0  0  4  0  0  0  0  0  0
    1.3240    3.0842    6.6698 H   0  0  0  0  0  0  0  0  0  0  0  0
    2.4174    3.6158    8.7117 H   0  0  0  0  0  0  0  0  0  0  0  0
   -0.1846    2.1635    9.2009 Si  0  0  0  0  0  4  0  0  0  0  0  0
   -0.0951    2.7665   10.5328 H   0  0  0  0  0  0  0  0  0  0  0  0
   -0.3929    0.7202    9.3054 H   0  0  0  0  0  0  0  0  0  0  0  0
    2.2167   -0.3774    8.5538 H   0  0  0  0  0  0  0  0  0  0  0  0
    4.1832    0.9263    8.4444 H   0  0  0  0  0  0  0  0  0  0  0  0
   -3.5512    1.7606    5.8761 H   0  0  0  0  0  0  0  0  0  0  0  0
   -1.2954    1.0730    6.0157 H   0  0  0  0  0  0  0  0  0  0  0  0
   -1.0860    5.0091    5.2052 H   0  0  0  0  0  0  0  0  0  0  0  0
   -2.8520    4.1111    3.7947 H   0  0  0  0  0  0  0  0  0  0  0  0
    0.9852   -3.3142    2.9108 H   0  0  0  0  0  0  0  0  0  0  0  0
    3.3138   -2.9737    3.1103 H   0  0  0  0  0  0  0  0  0  0  0  0
  1  2  1  0
  1  5  1  0
  2  3  1  0
  2  4  1  0
  2 11  1  0
  5  6  1  0
  5  7  1  0
  5  8  1  0
  8  9  1  0
  8 36  1  0
  8 37  1  0
  9 14  1  0
  9 18  1  0
  9 19  1  0
 10 11  1  0
 10 15  1  0
 10 34  1  0
 10 35  1  0
 11 12  1  0
 11 13  1  0
 14 16  1  0
 14 20  1  0
 14 21  1  0
 15 17  1  0
 15 32  1  0
 15 33  1  0
 16 24  1  0
 16 30  1  0
 16 31  1  0
 17 22  1  0
 17 23  1  0
 17 27  1  0
 24 25  1  0
 24 26  1  0
 24 27  1  0
 27 28  1  0
 27 29  1  0
M  CHG  1   1   1
M  RAD  1   1   2
M  END
$$$$
