
     RDKit          3D

 37 37  0  0  0  0  0  0  0  0999 V2000
   -0.6056    1.3289   -3.1045 S   0  0  0  0  0  2  0  0  0  0  0  0
   -1.0384   -0.4090   -4.3244 Si  0  0  0  0  0  4  0  0  0  0  0  0
   -0.5655   -1.6402   -3.6499 H   0  0  0  0  0  0  0  0  0  0  0  0
   -2.4979   -0.4484   -4.5164 H   0  0  0  0  0  0  0  0  0  0  0  0
    0.1996    2.8279   -4.3916 Si  0  0  0  0  0  4  0  0  0  0  0  0
    1.2418    2.1668   -5.2172 H   0  0  0  0  0  0  0  0  0  0  0  0
   -0.8800    3.3747   -5.2215 H   0  0  0  0  0  0  0  0  0  0  0  0
    1.1323    4.4934   -3.2715 Si  0  0  0  0  0  4  0  0  0  0  0  0
    1.9271    5.9759   -4.7494 Si  0  0  0  0  0  4  0  0  0  0  0  0
    1.8630   -1.2923   -6.4168 Si  0  0  0  0  0  4  0  0  0  0  0  0
   -0.0637   -0.2187   -6.3293 Si  0  0  0  0  0  4  0  0  0  0  0  0
   -0.9966   -0.7425   -7.3450 H   0  0  0  0  0  0  0  0  0  0  0  0
    0.0787    1.2273   -6.6060 H   0  0  0  0  0  0  0  0  0  0  0  0
    0.3387    6.6966   -6.0810 Si  0  0  0  0  0  4  0  0  0  0  0  0
    3.4866   -0.1113   -7.3248 Si  0  0  0  0  0  4  0  0  0  0  0  0
   -0.0317    5.4031   -7.8338 Si  0  0  0  0  0  4  0  0  0  0  0  0
    2.7789    1.3537   -8.8181 Si  0  0  0  0  0  4  0  0  0  0  0  0
    2.4279    7.1306   -3.9478 H   0  0  0  0  0  0  0  0  0  0  0  0
    3.0960    5.4474   -5.4613 H   0  0  0  0  0  0  0  0  0  0  0  0
   -0.9152    6.8176   -5.3257 H   0  0  0  0  0  0  0  0  0  0  0  0
    0.7044    8.0446   -6.5751 H   0  0  0  0  0  0  0  0  0  0  0  0
    1.4114    1.1413   -9.2525 H   0  0  0  0  0  0  0  0  0  0  0  0
    3.6503    1.2550  -10.0200 H   0  0  0  0  0  0  0  0  0  0  0  0
    1.7952    4.9059   -8.9604 Si  0  0  0  0  0  4  0  0  0  0  0  0
    1.3809    4.3510  -10.2816 H   0  0  0  0  0  0  0  0  0  0  0  0
    2.5292    6.1605   -9.2888 H   0  0  0  0  0  0  0  0  0  0  0  0
    3.0780    3.4183   -7.9758 Si  0  0  0  0  0  4  0  0  0  0  0  0
    4.5002    3.7877   -8.2274 H   0  0  0  0  0  0  0  0  0  0  0  0
    2.8849    3.3131   -6.5387 H   0  0  0  0  0  0  0  0  0  0  0  0
   -0.9453    6.1452   -8.7438 H   0  0  0  0  0  0  0  0  0  0  0  0
   -0.7445    4.1598   -7.4855 H   0  0  0  0  0  0  0  0  0  0  0  0
    4.2493    0.5605   -6.2361 H   0  0  0  0  0  0  0  0  0  0  0  0
    4.4569   -1.0616   -7.9405 H   0  0  0  0  0  0  0  0  0  0  0  0
    2.2613   -1.6653   -5.0375 H   0  0  0  0  0  0  0  0  0  0  0  0
    1.6846   -2.5401   -7.1722 H   0  0  0  0  0  0  0  0  0  0  0  0
    2.1505    4.0678   -2.3334 H   0  0  0  0  0  0  0  0  0  0  0  0
    0.0744    5.1882   -2.4976 H   0  0  0  0  0  0  0  0  0  0  0  0
  1  2  1  0
  1  5  1  0
  2  3  1  0
  2  4  1  0
  2 11  1  0
  5  6  1  0
  5  7  1  0
  5  8  1  0
  8  9  1  0
  8 36  1  0
  8 37  1  0
  9 14  1  0
  9 18  1  0
  9 19  1  0
 10 11  1  0
 10 15  1  0
 10 34  1  0
 10 35  1  0
 11 12  1  0
 11 13  1  0
 14 16  1  0
 14 20  1  0
 14 21  1  0
 15 17  1  0
 15 32  1  0
 15 33  1  0
 16 24  1  0
 16 30  1  0
 16 31  1  0
 17 22  1  0
 17 23  1  0
 17 27  1  0
 24 25  1  0
 24 26  1  0
 24 27  1  0
 27 28  1  0
 27 29  1  0
M  CHG  1   1   1
M  RAD  1   1   2
M  END
$$$$

     RDKit          3D

 37 37  0  0  0  0  0  0  0  0999 V2000
   -0.6056    1.3289   -3.1045 S   0  0  0  0  0  2  0  0  0  0  0  0
   -1.5843    2.9474   -4.0536 Si  0  0  0  0  0  4  0  0  0  0  0  0
   -2.5612    3.5094   -3.1065 H   0  0  0  0  0  0  0  0  0  0  0  0
   -0.5888    4.0289   -4.3006 H   0  0  0  0  0  0  0  0  0  0  0  0
    0.9067    0.4273   -4.2760 Si  0  0  0  0  0  4  0  0  0  0  0  0
    1.5726   -0.5974   -3.4563 H   0  0  0  0  0  0  0  0  0  0  0  0
    0.2851   -0.2619   -5.4142 H   0  0  0  0  0  0  0  0  0  0  0  0
    2.4141    1.8436   -5.0367 Si  0  0  0  0  0  4  0  0  0  0  0  0
    2.0697    2.2848   -7.2216 Si  0  0  0  0  0  4  0  0  0  0  0  0
   -2.5915    0.2663   -6.3875 Si  0  0  0  0  0  4  0  0  0  0  0  0
   -2.6099    2.4195   -5.9208 Si  0  0  0  0  0  4  0  0  0  0  0  0
   -1.9821    3.1435   -7.0625 H   0  0  0  0  0  0  0  0  0  0  0  0
   -4.0261    2.8803   -5.9048 H   0  0  0  0  0  0  0  0  0  0  0  0
    1.6790    0.4284   -8.3521 Si  0  0  0  0  0  4  0  0  0  0  0  0
   -4.2815   -0.1455   -7.8259 Si  0  0  0  0  0  4  0  0  0  0  0  0
    0.3884    0.7552  -10.1269 Si  0  0  0  0  0  4  0  0  0  0  0  0
   -3.5557    0.3372   -9.9068 Si  0  0  0  0  0  4  0  0  0  0  0  0
    3.3352    2.8878   -7.7258 H   0  0  0  0  0  0  0  0  0  0  0  0
    0.9806    3.2401   -7.2946 H   0  0  0  0  0  0  0  0  0  0  0  0
    1.0280   -0.5407   -7.4291 H   0  0  0  0  0  0  0  0  0  0  0  0
    2.9613   -0.2007   -8.7440 H   0  0  0  0  0  0  0  0  0  0  0  0
   -4.7358    0.1484  -10.7944 H   0  0  0  0  0  0  0  0  0  0  0  0
   -2.5501   -0.6264  -10.3395 H   0  0  0  0  0  0  0  0  0  0  0  0
   -0.6999    2.6667  -10.0661 Si  0  0  0  0  0  4  0  0  0  0  0  0
   -0.3085    3.4527   -8.8613 H   0  0  0  0  0  0  0  0  0  0  0  0
   -0.2765    3.5069  -11.2224 H   0  0  0  0  0  0  0  0  0  0  0  0
   -2.8937    2.4373  -10.0537 Si  0  0  0  0  0  4  0  0  0  0  0  0
   -3.5129    3.1899   -8.9249 H   0  0  0  0  0  0  0  0  0  0  0  0
   -3.4612    3.0599  -11.2837 H   0  0  0  0  0  0  0  0  0  0  0  0
   -0.5245   -0.4037  -10.2431 H   0  0  0  0  0  0  0  0  0  0  0  0
    1.2665    0.6874  -11.3297 H   0  0  0  0  0  0  0  0  0  0  0  0
   -4.6227   -1.5589   -7.8114 H   0  0  0  0  0  0  0  0  0  0  0  0
   -5.4105    0.7301   -7.5214 H   0  0  0  0  0  0  0  0  0  0  0  0
   -1.3577   -0.0690   -7.1549 H   0  0  0  0  0  0  0  0  0  0  0  0
   -2.7134   -0.5884   -5.2157 H   0  0  0  0  0  0  0  0  0  0  0  0
    3.7625    1.2139   -4.9651 H   0  0  0  0  0  0  0  0  0  0  0  0
    2.4872    3.0869   -4.2933 H   0  0  0  0  0  0  0  0  0  0  0  0
  1  2  1  0
  1  5  1  0
  2  3  1  0
  2  4  1  0
  2 11  1  0
  5  6  1  0
  5  7  1  0
  5  8  1  0
  8  9  1  0
  8 36  1  0
  8 37  1  0
  9 14  1  0
  9 18  1  0
  9 19  1  0
 10 11  1  0
 10 15  1  0
 10 34  1  0
 10 35  1  0
 11 12  1  0
 11 13  1  0
 14 16  1  0
 14 20  1  0
 14 21  1  0
 15 17  1  0
 15 32  1  0
 15 33  1  0
 16 24  1  0
 16 30  1  0
 16 31  1  0
 17 22  1  0
 17 23  1  0
 17 27  1  0
 24 25  1  0
 24 26  1  0
 24 27  1  0
 27 28  1  0
 27 29  1  0
M  CHG  1   1   1
M  RAD  1   1   2
M  END
$$$$

     RDKit          3D

 37 37  0  0  0  0  0  0  0  0999 V2000
   -0.6056    1.3289   -3.1045 S   0  0  0  0  0  2  0  0  0  0  0  0
   -1.9663    2.4064   -4.3150 Si  0  0  0  0  0  4  0  0  0  0  0  0
   -3.2780    2.3980   -3.6469 H   0  0  0  0  0  0  0  0  0  0  0  0
   -1.5407    3.8343   -4.3573 H   0  0  0  0  0  0  0  0  0  0  0  0
    1.3724    1.2913   -3.8518 Si  0  0  0  0  0  4  0  0  0  0  0  0
    2.2241    0.6130   -2.8619 H   0  0  0  0  0  0  0  0  0  0  0  0
    1.4062    0.4863   -5.0796 H   0  0  0  0  0  0  0  0  0  0  0  0
    2.2048    3.2857   -4.2833 Si  0  0  0  0  0  4  0  0  0  0  0  0
    2.2041    3.6923   -6.5018 Si  0  0  0  0  0  4  0  0  0  0  0  0
   -1.0930   -0.2544   -6.7248 Si  0  0  0  0  0  4  0  0  0  0  0  0
   -2.1884    1.6205   -6.3522 Si  0  0  0  0  0  4  0  0  0  0  0  0
   -1.7152    2.6339   -7.3376 H   0  0  0  0  0  0  0  0  0  0  0  0
   -3.6220    1.3968   -6.6885 H   0  0  0  0  0  0  0  0  0  0  0  0
    2.9631    1.9499   -7.6263 Si  0  0  0  0  0  4  0  0  0  0  0  0
   -2.0380   -1.2668   -8.5071 Si  0  0  0  0  0  4  0  0  0  0  0  0
    2.1049    1.8001   -9.6666 Si  0  0  0  0  0  4  0  0  0  0  0  0
   -1.1580   -0.3527  -10.3726 Si  0  0  0  0  0  4  0  0  0  0  0  0
    3.1373    4.8342   -6.7128 H   0  0  0  0  0  0  0  0  0  0  0  0
    0.8491    4.0624   -6.8644 H   0  0  0  0  0  0  0  0  0  0  0  0
    2.6304    0.7245   -6.8501 H   0  0  0  0  0  0  0  0  0  0  0  0
    4.4426    1.9925   -7.6807 H   0  0  0  0  0  0  0  0  0  0  0  0
   -1.8891   -0.9806  -11.5072 H   0  0  0  0  0  0  0  0  0  0  0  0
    0.2434   -0.7287  -10.5204 H   0  0  0  0  0  0  0  0  0  0  0  0
    0.2880    3.0124   -9.9331 Si  0  0  0  0  0  4  0  0  0  0  0  0
   -0.0033    3.7956   -8.6985 H   0  0  0  0  0  0  0  0  0  0  0  0
    0.5356    4.0390  -10.9852 H   0  0  0  0  0  0  0  0  0  0  0  0
   -1.5033    1.8262  -10.4327 Si  0  0  0  0  0  4  0  0  0  0  0  0
   -2.6339    2.1336   -9.5100 H   0  0  0  0  0  0  0  0  0  0  0  0
   -1.9953    2.2215  -11.7833 H   0  0  0  0  0  0  0  0  0  0  0  0
    1.8680    0.3680   -9.9548 H   0  0  0  0  0  0  0  0  0  0  0  0
    3.1659    2.2244  -10.6241 H   0  0  0  0  0  0  0  0  0  0  0  0
   -1.6964   -2.6801   -8.5238 H   0  0  0  0  0  0  0  0  0  0  0  0
   -3.4769   -1.0145   -8.5099 H   0  0  0  0  0  0  0  0  0  0  0  0
    0.2970    0.0572   -7.1657 H   0  0  0  0  0  0  0  0  0  0  0  0
   -1.0775   -1.1604   -5.5857 H   0  0  0  0  0  0  0  0  0  0  0  0
    3.6364    3.3219   -3.8721 H   0  0  0  0  0  0  0  0  0  0  0  0
    1.5368    4.3695   -3.5882 H   0  0  0  0  0  0  0  0  0  0  0  0
  1  2  1  0
  1  5  1  0
  2  3  1  0
  2  4  1  0
  2 11  1  0
  5  6  1  0
  5  7  1  0
  5  8  1  0
  8  9  1  0
  8 36  1  0
  8 37  1  0
  9 14  1  0
  9 18  1  0
  9 19  1  0
 10 11  1  0
 10 15  1  0
 10 34  1  0
 10 35  1  0
 11 12  1  0
 11 13  1  0
 14 16  1  0
 14 20  1  0
 14 21  1  0
 15 17  1  0
 15 32  1  0
 15 33  1  0
 16 24  1  0
 16 30  1  0
 16 31  1  0
 17 22  1  0
 17 23  1  0
 17 27  1  0
 24 25  1  0
 24 26  1  0
 24 27  1  0
 27 28  1  0
 27 29  1  0
M  CHG  1   1   1
M  RAD  1   1   2
M  END
$$$$

     RDKit          3D

 37 37  0  0  0  0  0  0  0  0999 V2000
   -0.6056    1.3289   -3.1045 S   0  0  0  0  0  2  0  0  0  0  0  0
   -1.7593    3.0816   -3.4414 Si  0  0  0  0  0  4  0  0  0  0  0  0
   -2.1754    3.6168   -2.1194 H   0  0  0  0  0  0  0  0  0  0  0  0
   -1.0250    4.1430   -4.1146 H   0  0  0  0  0  0  0  0  0  0  0  0
    1.1140    1.2074   -4.3387 Si  0  0  0  0  0  4  0  0  0  0  0  0
    2.3156    1.4901   -3.5188 H   0  0  0  0  0  0  0  0  0  0  0  0
    1.2595   -0.2026   -4.7827 H   0  0  0  0  0  0  0  0  0  0  0  0
    1.0305    2.5203   -6.1029 Si  0  0  0  0  0  4  0  0  0  0  0  0
    1.4401    1.4579   -8.0045 Si  0  0  0  0  0  4  0  0  0  0  0  0
   -3.1083    1.5461   -6.4610 Si  0  0  0  0  0  4  0  0  0  0  0  0
   -3.6266    2.5172   -4.5253 Si  0  0  0  0  0  4  0  0  0  0  0  0
   -4.5403    3.6380   -4.6839 H   0  0  0  0  0  0  0  0  0  0  0  0
   -4.3155    1.4991   -3.6962 H   0  0  0  0  0  0  0  0  0  0  0  0
    1.0244   -0.7056   -7.8922 Si  0  0  0  0  0  4  0  0  0  0  0  0
   -3.0045    3.0875   -8.0572 Si  0  0  0  0  0  4  0  0  0  0  0  0
   -0.9765   -1.2477   -8.6739 Si  0  0  0  0  0  4  0  0  0  0  0  0
   -4.4524    2.4792   -9.6771 Si  0  0  0  0  0  4  0  0  0  0  0  0
    2.8619    1.6673   -8.3982 H   0  0  0  0  0  0  0  0  0  0  0  0
    0.6324    2.0766   -9.0609 H   0  0  0  0  0  0  0  0  0  0  0  0
    2.0351   -1.4236   -8.7201 H   0  0  0  0  0  0  0  0  0  0  0  0
    1.1684   -1.2521   -6.5299 H   0  0  0  0  0  0  0  0  0  0  0  0
   -5.7872    2.5539   -9.0942 H   0  0  0  0  0  0  0  0  0  0  0  0
   -4.2932    3.3220  -10.8633 H   0  0  0  0  0  0  0  0  0  0  0  0
   -1.7039    0.1739  -10.2139 Si  0  0  0  0  0  4  0  0  0  0  0  0
   -1.2852   -0.2910  -11.5616 H   0  0  0  0  0  0  0  0  0  0  0  0
   -1.0686    1.4825  -10.0174 H   0  0  0  0  0  0  0  0  0  0  0  0
   -3.9419    0.3334  -10.1521 Si  0  0  0  0  0  4  0  0  0  0  0  0
   -4.4187   -0.4627   -8.9888 H   0  0  0  0  0  0  0  0  0  0  0  0
   -4.5498   -0.0968  -11.3944 H   0  0  0  0  0  0  0  0  0  0  0  0
   -0.9181   -2.5909   -9.2930 H   0  0  0  0  0  0  0  0  0  0  0  0
   -1.9127   -1.3521   -7.5371 H   0  0  0  0  0  0  0  0  0  0  0  0
   -3.2676    4.4291   -7.5822 H   0  0  0  0  0  0  0  0  0  0  0  0
   -1.6593    3.0271   -8.6759 H   0  0  0  0  0  0  0  0  0  0  0  0
   -4.0946    0.4929   -6.7636 H   0  0  0  0  0  0  0  0  0  0  0  0
   -1.8133    0.8546   -6.2719 H   0  0  0  0  0  0  0  0  0  0  0  0
   -0.2818    3.2164   -6.1300 H   0  0  0  0  0  0  0  0  0  0  0  0
    2.0441    3.5848   -5.9498 H   0  0  0  0  0  0  0  0  0  0  0  0
  1  2  1  0
  1  5  1  0
  2  3  1  0
  2  4  1  0
  2 11  1  0
  5  6  1  0
  5  7  1  0
  5  8  1  0
  8  9  1  0
  8 36  1  0
  8 37  1  0
  9 14  1  0
  9 18  1  0
  9 19  1  0
 10 11  1  0
 10 15  1  0
 10 34  1  0
 10 35  1  0
 11 12  1  0
 11 13  1  0
 14 16  1  0
 14 20  1  0
 14 21  1  0
 15 17  1  0
 15 32  1  0
 15 33  1  0
 16 24  1  0
 16 30  1  0
 16 31  1  0
 17 22  1  0
 17 23  1  0
 17 27  1  0
 24 25  1  0
 24 26  1  0
 24 27  1  0
 27 28  1  0
 27 29  1  0
M  CHG  1   1   1
M  RAD  1   1   2
M  END
$$$$

     RDKit          3D

 37 37  0  0  0  0  0  0  0  0999 V2000
   -0.6056    1.3289   -3.1045 S   0  0  0  0  0  2  0  0  0  0  0  0
   -1.9394    1.6216   -4.7211 Si  0  0  0  0  0  4  0  0  0  0  0  0
   -3.1519    0.8278   -4.4626 H   0  0  0  0  0  0  0  0  0  0  0  0
   -2.3792    3.0458   -4.7256 H   0  0  0  0  0  0  0  0  0  0  0  0
    1.1791    2.4551   -3.2426 Si  0  0  0  0  0  4  0  0  0  0  0  0
    1.9523    2.2429   -2.0088 H   0  0  0  0  0  0  0  0  0  0  0  0
    1.9862    1.9404   -4.3563 H   0  0  0  0  0  0  0  0  0  0  0  0
    0.8545    4.6151   -3.5357 Si  0  0  0  0  0  4  0  0  0  0  0  0
    1.2388    5.2003   -5.6798 Si  0  0  0  0  0  4  0  0  0  0  0  0
    0.8764    0.1499   -6.6065 Si  0  0  0  0  0  4  0  0  0  0  0  0
   -1.1222    1.0739   -6.6830 Si  0  0  0  0  0  4  0  0  0  0  0  0
   -1.0373    2.2841   -7.5491 H   0  0  0  0  0  0  0  0  0  0  0  0
   -2.0364    0.1466   -7.4060 H   0  0  0  0  0  0  0  0  0  0  0  0
    3.1058    4.2877   -6.4270 Si  0  0  0  0  0  4  0  0  0  0  0  0
    1.1787   -1.0073   -8.5208 Si  0  0  0  0  0  4  0  0  0  0  0  0
    3.0720    3.9243   -8.6154 Si  0  0  0  0  0  4  0  0  0  0  0  0
    1.8806    0.4393  -10.1034 Si  0  0  0  0  0  4  0  0  0  0  0  0
    1.4030    6.6810   -5.6808 H   0  0  0  0  0  0  0  0  0  0  0  0
    0.0667    4.8129   -6.4415 H   0  0  0  0  0  0  0  0  0  0  0  0
    3.3057    3.0007   -5.7071 H   0  0  0  0  0  0  0  0  0  0  0  0
    4.2631    5.1328   -6.0529 H   0  0  0  0  0  0  0  0  0  0  0  0
    1.9618   -0.3539  -11.3605 H   0  0  0  0  0  0  0  0  0  0  0  0
    3.2327    0.9039   -9.8154 H   0  0  0  0  0  0  0  0  0  0  0  0
    1.0453    3.9762   -9.4708 Si  0  0  0  0  0  4  0  0  0  0  0  0
    0.0453    4.3322   -8.4239 H   0  0  0  0  0  0  0  0  0  0  0  0
    0.9635    5.0823  -10.4668 H   0  0  0  0  0  0  0  0  0  0  0  0
    0.4244    2.0718  -10.3944 Si  0  0  0  0  0  4  0  0  0  0  0  0
   -0.8893    1.6108   -9.8597 H   0  0  0  0  0  0  0  0  0  0  0  0
    0.1895    2.2841  -11.8512 H   0  0  0  0  0  0  0  0  0  0  0  0
    3.7535    2.6359   -8.8715 H   0  0  0  0  0  0  0  0  0  0  0  0
    3.9372    4.9603   -9.2483 H   0  0  0  0  0  0  0  0  0  0  0  0
    2.2312   -1.9961   -8.3512 H   0  0  0  0  0  0  0  0  0  0  0  0
   -0.0934   -1.5785   -8.9559 H   0  0  0  0  0  0  0  0  0  0  0  0
    1.9211    1.2133   -6.6439 H   0  0  0  0  0  0  0  0  0  0  0  0
    1.0752   -0.7226   -5.4586 H   0  0  0  0  0  0  0  0  0  0  0  0
    1.8499    5.3769   -2.7303 H   0  0  0  0  0  0  0  0  0  0  0  0
   -0.4599    5.0769   -3.1318 H   0  0  0  0  0  0  0  0  0  0  0  0
  1  2  1  0
  1  5  1  0
  2  3  1  0
  2  4  1  0
  2 11  1  0
  5  6  1  0
  5  7  1  0
  5  8  1  0
  8  9  1  0
  8 36  1  0
  8 37  1  0
  9 14  1  0
  9 18  1  0
  9 19  1  0
 10 11  1  0
 10 15  1  0
 10 34  1  0
 10 35  1  0
 11 12  1  0
 11 13  1  0
 14 16  1  0
 14 20  1  0
 14 21  1  0
 15 17  1  0
 15 32  1  0
 15 33  1  0
 16 24  1  0
 16 30  1  0
 16 31  1  0
 17 22  1  0
 17 23  1  0
 17 27  1  0
 24 25  1  0
 24 26  1  0
 24 27  1  0
 27 28  1  0
 27 29  1  0
M  CHG  1   1   1
M  RAD  1   1   2
M  END
$$$$

     RDKit          3D

 37 37  0  0  0  0  0  0  0  0999 V2000
   -0.6056    1.3289   -3.1045 S   0  0  0  0  0  2  0  0  0  0  0  0
   -2.3167    1.2468   -4.3622 Si  0  0  0  0  0  4  0  0  0  0  0  0
   -3.4456    0.7027   -3.5642 H   0  0  0  0  0  0  0  0  0  0  0  0
   -2.7391    2.5485   -4.8585 H   0  0  0  0  0  0  0  0  0  0  0  0
    0.5126    3.1165   -3.3265 Si  0  0  0  0  0  4  0  0  0  0  0  0
    0.2831    3.9777   -2.1426 H   0  0  0  0  0  0  0  0  0  0  0  0
    1.9545    2.7619   -3.2856 H   0  0  0  0  0  0  0  0  0  0  0  0
    0.0835    4.2018   -5.1922 Si  0  0  0  0  0  4  0  0  0  0  0  0
    1.9042    4.6976   -6.3548 Si  0  0  0  0  0  4  0  0  0  0  0  0
   -0.1428    0.4292   -7.1730 Si  0  0  0  0  0  4  0  0  0  0  0  0
   -1.9307   -0.2089   -6.0090 Si  0  0  0  0  0  4  0  0  0  0  0  0
   -3.0999   -0.4270   -6.8466 H   0  0  0  0  0  0  0  0  0  0  0  0
   -1.5966   -1.5044   -5.3700 H   0  0  0  0  0  0  0  0  0  0  0  0
    3.6018    3.3600   -5.9134 Si  0  0  0  0  0  4  0  0  0  0  0  0
   -0.7834    1.7169   -8.8659 Si  0  0  0  0  0  4  0  0  0  0  0  0
    3.8048    1.7037   -7.3709 Si  0  0  0  0  0  4  0  0  0  0  0  0
   -0.0153    0.7678  -10.7632 Si  0  0  0  0  0  4  0  0  0  0  0  0
    2.3030    6.1073   -6.0826 H   0  0  0  0  0  0  0  0  0  0  0  0
    1.5692    4.6402   -7.7816 H   0  0  0  0  0  0  0  0  0  0  0  0
    4.8590    4.1592   -5.9702 H   0  0  0  0  0  0  0  0  0  0  0  0
    3.5536    2.7943   -4.5522 H   0  0  0  0  0  0  0  0  0  0  0  0
   -0.7118   -0.5058  -10.9050 H   0  0  0  0  0  0  0  0  0  0  0  0
   -0.2063    1.6599  -11.9079 H   0  0  0  0  0  0  0  0  0  0  0  0
    3.0005    2.2253   -9.3716 Si  0  0  0  0  0  4  0  0  0  0  0  0
    4.0801    2.8110  -10.2077 H   0  0  0  0  0  0  0  0  0  0  0  0
    1.9772    3.2689   -9.2357 H   0  0  0  0  0  0  0  0  0  0  0  0
    2.1810    0.4042  -10.3963 Si  0  0  0  0  0  4  0  0  0  0  0  0
    2.2479   -0.7254   -9.4300 H   0  0  0  0  0  0  0  0  0  0  0  0
    2.8860    0.1125  -11.6274 H   0  0  0  0  0  0  0  0  0  0  0  0
    5.2357    1.3631   -7.5359 H   0  0  0  0  0  0  0  0  0  0  0  0
    3.1514    0.5034   -6.8123 H   0  0  0  0  0  0  0  0  0  0  0  0
   -2.2135    1.9329   -8.9180 H   0  0  0  0  0  0  0  0  0  0  0  0
   -0.0815    3.0172   -8.7533 H   0  0  0  0  0  0  0  0  0  0  0  0
    0.6011   -0.7606   -7.6255 H   0  0  0  0  0  0  0  0  0  0  0  0
    0.7555    1.1455   -6.2397 H   0  0  0  0  0  0  0  0  0  0  0  0
   -0.8907    3.4202   -5.9969 H   0  0  0  0  0  0  0  0  0  0  0  0
   -0.6005    5.4683   -4.8571 H   0  0  0  0  0  0  0  0  0  0  0  0
  1  2  1  0
  1  5  1  0
  2  3  1  0
  2  4  1  0
  2 11  1  0
  5  6  1  0
  5  7  1  0
  5  8  1  0
  8  9  1  0
  8 36  1  0
  8 37  1  0
  9 14  1  0
  9 18  1  0
  9 19  1  0
 10 11  1  0
 10 15  1  0
 10 34  1  0
 10 35  1  0
 11 12  1  0
 11 13  1  0
 14 16  1  0
 14 20  1  0
 14 21  1  0
 15 17  1  0
 15 32  1  0
 15 33  1  0
 16 24  1  0
 16 30  1  0
 16 31  1  0
 17 22  1  0
 17 23  1  0
 17 27  1  0
 24 25  1  0
 24 26  1  0
 24 27  1  0
 27 28  1  0
 27 29  1  0
M  CHG  1   1   1
M  RAD  1   1   2
M  END
$$$$

     RDKit          3D

 37 37  0  0  0  0  0  0  0  0999 V2000
   -0.6056    1.3289   -3.1045 S   0  0  0  0  0  2  0  0  0  0  0  0
   -1.0365    0.2962   -4.9112 Si  0  0  0  0  0  4  0  0  0  0  0  0
   -1.5488   -1.0525   -4.5564 H   0  0  0  0  0  0  0  0  0  0  0  0
   -2.0625    0.9383   -5.7199 H   0  0  0  0  0  0  0  0  0  0  0  0
   -1.2382    3.3524   -3.1246 Si  0  0  0  0  0  4  0  0  0  0  0  0
   -2.4410    3.4889   -2.2697 H   0  0  0  0  0  0  0  0  0  0  0  0
   -0.1868    4.1668   -2.4628 H   0  0  0  0  0  0  0  0  0  0  0  0
   -1.6067    4.1435   -5.1447 Si  0  0  0  0  0  4  0  0  0  0  0  0
   -0.5407    6.0445   -5.5480 Si  0  0  0  0  0  4  0  0  0  0  0  0
    1.8081    1.9575   -6.4742 Si  0  0  0  0  0  4  0  0  0  0  0  0
    0.8663   -0.0120   -6.0358 Si  0  0  0  0  0  4  0  0  0  0  0  0
    0.6849   -0.8275   -7.2267 H   0  0  0  0  0  0  0  0  0  0  0  0
    1.7864   -0.7454   -5.1337 H   0  0  0  0  0  0  0  0  0  0  0  0
    1.2409    6.3222   -4.2774 Si  0  0  0  0  0  4  0  0  0  0  0  0
    1.1080    2.6883   -8.4516 Si  0  0  0  0  0  4  0  0  0  0  0  0
    3.1227    5.7095   -5.2736 Si  0  0  0  0  0  4  0  0  0  0  0  0
    2.9361    3.0413   -9.7259 Si  0  0  0  0  0  4  0  0  0  0  0  0
   -1.4713    7.1914   -5.3504 H   0  0  0  0  0  0  0  0  0  0  0  0
   -0.1634    6.0691   -6.9652 H   0  0  0  0  0  0  0  0  0  0  0  0
    1.3635    7.7708   -3.9472 H   0  0  0  0  0  0  0  0  0  0  0  0
    1.1399    5.6277   -2.9801 H   0  0  0  0  0  0  0  0  0  0  0  0
    3.5519    1.7373   -9.9436 H   0  0  0  0  0  0  0  0  0  0  0  0
    2.5812    3.7263  -10.9700 H   0  0  0  0  0  0  0  0  0  0  0  0
    3.0161    5.8901   -7.4821 Si  0  0  0  0  0  4  0  0  0  0  0  0
    3.4837    7.2379   -7.8970 H   0  0  0  0  0  0  0  0  0  0  0  0
    1.6182    5.7903   -7.9187 H   0  0  0  0  0  0  0  0  0  0  0  0
    4.2946    4.3308   -8.4680 Si  0  0  0  0  0  4  0  0  0  0  0  0
    4.8230    3.4397   -7.3999 H   0  0  0  0  0  0  0  0  0  0  0  0
    5.3536    4.9210   -9.2605 H   0  0  0  0  0  0  0  0  0  0  0  0
    4.2327    6.5691   -4.8048 H   0  0  0  0  0  0  0  0  0  0  0  0
    3.4522    4.3340   -4.8504 H   0  0  0  0  0  0  0  0  0  0  0  0
    0.1707    1.7950   -9.0984 H   0  0  0  0  0  0  0  0  0  0  0  0
    0.4858    4.0199   -8.2622 H   0  0  0  0  0  0  0  0  0  0  0  0
    3.2754    1.8265   -6.4138 H   0  0  0  0  0  0  0  0  0  0  0  0
    1.4319    2.8775   -5.3774 H   0  0  0  0  0  0  0  0  0  0  0  0
   -1.2708    3.0981   -6.1457 H   0  0  0  0  0  0  0  0  0  0  0  0
   -3.0550    4.3933   -5.2990 H   0  0  0  0  0  0  0  0  0  0  0  0
  1  2  1  0
  1  5  1  0
  2  3  1  0
  2  4  1  0
  2 11  1  0
  5  6  1  0
  5  7  1  0
  5  8  1  0
  8  9  1  0
  8 36  1  0
  8 37  1  0
  9 14  1  0
  9 18  1  0
  9 19  1  0
 10 11  1  0
 10 15  1  0
 10 34  1  0
 10 35  1  0
 11 12  1  0
 11 13  1  0
 14 16  1  0
 14 20  1  0
 14 21  1  0
 15 17  1  0
 15 32  1  0
 15 33  1  0
 16 24  1  0
 16 30  1  0
 16 31  1  0
 17 22  1  0
 17 23  1  0
 17 27  1  0
 24 25  1  0
 24 26  1  0
 24 27  1  0
 27 28  1  0
 27 29  1  0
M  CHG  1   1   1
M  RAD  1   1   2
M  END
$$$$

     RDKit          3D

 37 37  0  0  0  0  0  0  0  0999 V2000
   -0.6056    1.3289   -3.1045 S   0  0  0  0  0  2  0  0  0  0  0  0
   -0.0169   -0.3893   -4.1965 Si  0  0  0  0  0  4  0  0  0  0  0  0
   -0.7894   -1.5483   -3.6784 H   0  0  0  0  0  0  0  0  0  0  0  0
    1.4361   -0.6103   -3.9482 H   0  0  0  0  0  0  0  0  0  0  0  0
   -2.4216    2.1905   -3.8288 Si  0  0  0  0  0  4  0  0  0  0  0  0
   -2.9528    1.4967   -4.9962 H   0  0  0  0  0  0  0  0  0  0  0  0
   -3.4469    2.2532   -2.7634 H   0  0  0  0  0  0  0  0  0  0  0  0
   -1.9537    4.3310   -4.3627 Si  0  0  0  0  0  4  0  0  0  0  0  0
   -0.2195    4.2642   -5.7919 Si  0  0  0  0  0  4  0  0  0  0  0  0
    1.6438    0.0589   -7.4591 Si  0  0  0  0  0  4  0  0  0  0  0  0
   -0.3070   -0.1894   -6.3747 Si  0  0  0  0  0  4  0  0  0  0  0  0
   -1.2130    0.9188   -6.6637 H   0  0  0  0  0  0  0  0  0  0  0  0
   -0.9389   -1.4277   -6.8885 H   0  0  0  0  0  0  0  0  0  0  0  0
    1.6413    3.7374   -4.6910 Si  0  0  0  0  0  4  0  0  0  0  0  0
    1.2756    1.4141   -9.1870 Si  0  0  0  0  0  4  0  0  0  0  0  0
    3.1494    5.3728   -5.0096 Si  0  0  0  0  0  4  0  0  0  0  0  0
    3.0165    2.7074   -9.6290 Si  0  0  0  0  0  4  0  0  0  0  0  0
   -0.5226    3.2289   -6.8078 H   0  0  0  0  0  0  0  0  0  0  0  0
   -0.1112    5.5695   -6.4392 H   0  0  0  0  0  0  0  0  0  0  0  0
    2.2220    2.5155   -5.2913 H   0  0  0  0  0  0  0  0  0  0  0  0
    1.4124    3.4946   -3.2747 H   0  0  0  0  0  0  0  0  0  0  0  0
    2.5023    3.9591  -10.2464 H   0  0  0  0  0  0  0  0  0  0  0  0
    3.8808    2.0538  -10.6317 H   0  0  0  0  0  0  0  0  0  0  0  0
    3.6832    5.3540   -7.1892 Si  0  0  0  0  0  4  0  0  0  0  0  0
    4.7851    6.2607   -7.4852 H   0  0  0  0  0  0  0  0  0  0  0  0
    2.4750    5.7947   -7.9201 H   0  0  0  0  0  0  0  0  0  0  0  0
    4.1545    3.2522   -7.7943 Si  0  0  0  0  0  4  0  0  0  0  0  0
    5.5944    3.1904   -8.1321 H   0  0  0  0  0  0  0  0  0  0  0  0
    3.9046    2.3024   -6.7086 H   0  0  0  0  0  0  0  0  0  0  0  0
    2.5502    6.6733   -4.6381 H   0  0  0  0  0  0  0  0  0  0  0  0
    4.3038    5.0887   -4.1665 H   0  0  0  0  0  0  0  0  0  0  0  0
    0.0701    2.2376   -8.9582 H   0  0  0  0  0  0  0  0  0  0  0  0
    0.9919    0.5695  -10.3656 H   0  0  0  0  0  0  0  0  0  0  0  0
    2.0874   -1.2675   -7.9643 H   0  0  0  0  0  0  0  0  0  0  0  0
    2.6954    0.5441   -6.5757 H   0  0  0  0  0  0  0  0  0  0  0  0
   -3.1028    5.0020   -4.9353 H   0  0  0  0  0  0  0  0  0  0  0  0
   -1.4563    5.0079   -3.1422 H   0  0  0  0  0  0  0  0  0  0  0  0
  1  2  1  0
  1  5  1  0
  2  3  1  0
  2  4  1  0
  2 11  1  0
  5  6  1  0
  5  7  1  0
  5  8  1  0
  8  9  1  0
  8 36  1  0
  8 37  1  0
  9 14  1  0
  9 18  1  0
  9 19  1  0
 10 11  1  0
 10 15  1  0
 10 34  1  0
 10 35  1  0
 11 12  1  0
 11 13  1  0
 14 16  1  0
 14 20  1  0
 14 21  1  0
 15 17  1  0
 15 32  1  0
 15 33  1  0
 16 24  1  0
 16 30  1  0
 16 31  1  0
 17 22  1  0
 17 23  1  0
 17 27  1  0
 24 25  1  0
 24 26  1  0
 24 27  1  0
 27 28  1  0
 27 29  1  0
M  CHG  1   1   1
M  RAD  1   1   2
M  END
$$$$

     RDKit          3D

 37 37  0  0  0  0  0  0  0  0999 V2000
   -0.6056    1.3289   -3.1045 S   0  0  0  0  0  2  0  0  0  0  0  0
   -0.8965    0.2765   -4.9277 Si  0  0  0  0  0  4  0  0  0  0  0  0
   -1.3247   -1.1065   -4.5946 H   0  0  0  0  0  0  0  0  0  0  0  0
   -1.9353    0.8483   -5.7722 H   0  0  0  0  0  0  0  0  0  0  0  0
   -1.3785    3.3028   -3.1437 Si  0  0  0  0  0  4  0  0  0  0  0  0
   -2.6182    3.3502   -2.3332 H   0  0  0  0  0  0  0  0  0  0  0  0
   -0.4121    4.1863   -2.4424 H   0  0  0  0  0  0  0  0  0  0  0  0
   -1.7284    4.0751   -5.1745 Si  0  0  0  0  0  4  0  0  0  0  0  0
   -0.7856    6.0483   -5.5348 Si  0  0  0  0  0  4  0  0  0  0  0  0
    1.8784    2.1416   -6.3825 Si  0  0  0  0  0  4  0  0  0  0  0  0
    1.0629    0.1085   -5.9826 Si  0  0  0  0  0  4  0  0  0  0  0  0
    0.9830   -0.7124   -7.1810 H   0  0  0  0  0  0  0  0  0  0  0  0
    1.9992   -0.5622   -5.0489 H   0  0  0  0  0  0  0  0  0  0  0  0
    0.9246    6.4453   -4.1994 Si  0  0  0  0  0  4  0  0  0  0  0  0
    1.2007    2.8300   -8.3828 Si  0  0  0  0  0  4  0  0  0  0  0  0
    2.8800    5.9715   -5.1273 Si  0  0  0  0  0  4  0  0  0  0  0  0
    3.0443    3.3170   -9.5887 Si  0  0  0  0  0  4  0  0  0  0  0  0
   -1.8015    7.1258   -5.3691 H   0  0  0  0  0  0  0  0  0  0  0  0
   -0.3597    6.1060   -6.9372 H   0  0  0  0  0  0  0  0  0  0  0  0
    0.9324    7.8974   -3.8621 H   0  0  0  0  0  0  0  0  0  0  0  0
    0.8260    5.7396   -2.9080 H   0  0  0  0  0  0  0  0  0  0  0  0
    3.7583    2.0607   -9.7863 H   0  0  0  0  0  0  0  0  0  0  0  0
    2.6873    3.9808  -10.8436 H   0  0  0  0  0  0  0  0  0  0  0  0
    2.8411    6.1541   -7.3379 Si  0  0  0  0  0  4  0  0  0  0  0  0
    3.2271    7.5335   -7.7328 H   0  0  0  0  0  0  0  0  0  0  0  0
    1.4706    5.9578   -7.8255 H   0  0  0  0  0  0  0  0  0  0  0  0
    4.2616    4.6934   -8.2794 Si  0  0  0  0  0  4  0  0  0  0  0  0
    4.8126    3.8370   -7.1945 H   0  0  0  0  0  0  0  0  0  0  0  0
    5.3044    5.3605   -9.0315 H   0  0  0  0  0  0  0  0  0  0  0  0
    3.9087    6.9052   -4.6166 H   0  0  0  0  0  0  0  0  0  0  0  0
    3.2903    4.6208   -4.6950 H   0  0  0  0  0  0  0  0  0  0  0  0
    0.3530    1.8758   -9.0651 H   0  0  0  0  0  0  0  0  0  0  0  0
    0.4794    4.1135   -8.2136 H   0  0  0  0  0  0  0  0  0  0  0  0
    3.3482    2.1141   -6.2687 H   0  0  0  0  0  0  0  0  0  0  0  0
    1.3986    3.0278   -5.2984 H   0  0  0  0  0  0  0  0  0  0  0  0
   -1.2833    3.0605   -6.1645 H   0  0  0  0  0  0  0  0  0  0  0  0
   -3.1842    4.2227   -5.3811 H   0  0  0  0  0  0  0  0  0  0  0  0
  1  2  1  0
  1  5  1  0
  2  3  1  0
  2  4  1  0
  2 11  1  0
  5  6  1  0
  5  7  1  0
  5  8  1  0
  8  9  1  0
  8 36  1  0
  8 37  1  0
  9 14  1  0
  9 18  1  0
  9 19  1  0
 10 11  1  0
 10 15  1  0
 10 34  1  0
 10 35  1  0
 11 12  1  0
 11 13  1  0
 14 16  1  0
 14 20  1  0
 14 21  1  0
 15 17  1  0
 15 32  1  0
 15 33  1  0
 16 24  1  0
 16 30  1  0
 16 31  1  0
 17 22  1  0
 17 23  1  0
 17 27  1  0
 24 25  1  0
 24 26  1  0
 24 27  1  0
 27 28  1  0
 27 29  1  0
M  CHG  1   1   1
M  RAD  1   1   2
M  END
$$$$

     RDKit          3D

 37 37  0  0  0  0  0  0  0  0999 V2000
   -0.6056    1.3289   -3.1045 S   0  0  0  0  0  2  0  0  0  0  0  0
    0.1424   -0.3385   -4.1776 Si  0  0  0  0  0  4  0  0  0  0  0  0
   -0.5645   -1.5515   -3.6904 H   0  0  0  0  0  0  0  0  0  0  0  0
    1.5974   -0.4575   -3.8768 H   0  0  0  0  0  0  0  0  0  0  0  0
   -2.4505    2.0634   -3.8930 Si  0  0  0  0  0  4  0  0  0  0  0  0
   -2.8885    1.3391   -5.0804 H   0  0  0  0  0  0  0  0  0  0  0  0
   -3.5156    2.0488   -2.8657 H   0  0  0  0  0  0  0  0  0  0  0  0
   -2.1159    4.2340   -4.4053 Si  0  0  0  0  0  4  0  0  0  0  0  0
   -0.3306    4.2962   -5.7703 Si  0  0  0  0  0  4  0  0  0  0  0  0
    1.8847    0.2405   -7.3765 Si  0  0  0  0  0  4  0  0  0  0  0  0
   -0.0818   -0.1497   -6.3646 Si  0  0  0  0  0  4  0  0  0  0  0  0
   -1.0528    0.8931   -6.6843 H   0  0  0  0  0  0  0  0  0  0  0  0
   -0.6055   -1.4272   -6.9035 H   0  0  0  0  0  0  0  0  0  0  0  0
    1.5215    3.8971   -4.6031 Si  0  0  0  0  0  4  0  0  0  0  0  0
    1.4846    1.5742   -9.1140 Si  0  0  0  0  0  4  0  0  0  0  0  0
    2.9208    5.6364   -4.8632 Si  0  0  0  0  0  4  0  0  0  0  0  0
    3.1445    2.9891   -9.4895 Si  0  0  0  0  0  4  0  0  0  0  0  0
   -0.5227    3.2467   -6.7986 H   0  0  0  0  0  0  0  0  0  0  0  0
   -0.2914    5.6089   -6.4107 H   0  0  0  0  0  0  0  0  0  0  0  0
    2.2086    2.7220   -5.1842 H   0  0  0  0  0  0  0  0  0  0  0  0
    1.2591    3.6324   -3.1966 H   0  0  0  0  0  0  0  0  0  0  0  0
    2.5659    4.2042  -10.1229 H   0  0  0  0  0  0  0  0  0  0  0  0
    4.0887    2.4027  -10.4612 H   0  0  0  0  0  0  0  0  0  0  0  0
    3.5334    5.6652   -7.0219 Si  0  0  0  0  0  4  0  0  0  0  0  0
    4.5785    6.6487   -7.2756 H   0  0  0  0  0  0  0  0  0  0  0  0
    2.3245    6.0228   -7.7956 H   0  0  0  0  0  0  0  0  0  0  0  0
    4.1738    3.6046   -7.6134 Si  0  0  0  0  0  4  0  0  0  0  0  0
    5.6258    3.6461   -7.8985 H   0  0  0  0  0  0  0  0  0  0  0  0
    3.9524    2.6346   -6.5394 H   0  0  0  0  0  0  0  0  0  0  0  0
    2.2181    6.8896   -4.5113 H   0  0  0  0  0  0  0  0  0  0  0  0
    4.0611    5.4306   -3.9790 H   0  0  0  0  0  0  0  0  0  0  0  0
    0.2164    2.3095   -8.9278 H   0  0  0  0  0  0  0  0  0  0  0  0
    1.3043    0.7171  -10.3038 H   0  0  0  0  0  0  0  0  0  0  0  0
    2.4390   -1.0489   -7.8677 H   0  0  0  0  0  0  0  0  0  0  0  0
    2.8665    0.7948   -6.4543 H   0  0  0  0  0  0  0  0  0  0  0  0
   -3.2880    4.8248   -5.0182 H   0  0  0  0  0  0  0  0  0  0  0  0
   -1.7123    4.9389   -3.1661 H   0  0  0  0  0  0  0  0  0  0  0  0
  1  2  1  0
  1  5  1  0
  2  3  1  0
  2  4  1  0
  2 11  1  0
  5  6  1  0
  5  7  1  0
  5  8  1  0
  8  9  1  0
  8 36  1  0
  8 37  1  0
  9 14  1  0
  9 18  1  0
  9 19  1  0
 10 11  1  0
 10 15  1  0
 10 34  1  0
 10 35  1  0
 11 12  1  0
 11 13  1  0
 14 16  1  0
 14 20  1  0
 14 21  1  0
 15 17  1  0
 15 32  1  0
 15 33  1  0
 16 24  1  0
 16 30  1  0
 16 31  1  0
 17 22  1  0
 17 23  1  0
 17 27  1  0
 24 25  1  0
 24 26  1  0
 24 27  1  0
 27 28  1  0
 27 29  1  0
M  CHG  1   1   1
M  RAD  1   1   2
M  END
$$$$
