
     RDKit          3D

 37 37  0  0  0  0  0  0  0  0999 V2000
   -0.1623    0.0503   -3.2028 S   0  0  0  0  0  2  0  0  0  0  0  0
   -0.6064    1.8408   -4.2707 Si  0  0  0  0  0  4  0  0  0  0  0  0
   -1.1354    1.5893   -5.6061 H   0  0  0  0  0  0  0  0  0  0  0  0
   -1.5738    2.6940   -3.5651 H   0  0  0  0  0  0  0  0  0  0  0  0
   -1.7527   -1.3625   -3.2720 Si  0  0  0  0  0  4  0  0  0  0  0  0
   -1.2236   -2.6868   -3.6697 H   0  0  0  0  0  0  0  0  0  0  0  0
   -2.2885   -1.5048   -1.8976 H   0  0  0  0  0  0  0  0  0  0  0  0
   -3.3407   -0.7885   -4.7133 Si  0  0  0  0  0  4  0  0  0  0  0  0
   -3.0807   -1.8347   -6.6805 Si  0  0  0  0  0  4  0  0  0  0  0  0
    2.7044    1.9430   -5.8827 Si  0  0  0  0  0  4  0  0  0  0  0  0
    1.3081    2.9983   -4.5348 Si  0  0  0  0  0  4  0  0  0  0  0  0
    1.9365    3.0641   -3.1890 H   0  0  0  0  0  0  0  0  0  0  0  0
    1.0530    4.3643   -4.9537 H   0  0  0  0  0  0  0  0  0  0  0  0
   -1.9385   -0.4883   -8.0411 Si  0  0  0  0  0  4  0  0  0  0  0  0
    2.1178    2.0198   -7.9972 Si  0  0  0  0  0  4  0  0  0  0  0  0
   -3.1411    1.3930   -8.2873 Si  0  0  0  0  0  4  0  0  0  0  0  0
    0.3310    3.2657   -8.3792 Si  0  0  0  0  0  4  0  0  0  0  0  0
   -2.4344   -3.1186   -6.4871 H   0  0  0  0  0  0  0  0  0  0  0  0
   -4.4085   -2.0567   -7.2970 H   0  0  0  0  0  0  0  0  0  0  0  0
   -0.6913   -0.0884   -7.3343 H   0  0  0  0  0  0  0  0  0  0  0  0
   -1.6246   -1.1044   -9.3145 H   0  0  0  0  0  0  0  0  0  0  0  0
   -0.6670    3.1955   -7.3278 H   0  0  0  0  0  0  0  0  0  0  0  0
    0.7791    4.6810   -8.4760 H   0  0  0  0  0  0  0  0  0  0  0  0
   -2.6815    2.2807  -10.2660 Si  0  0  0  0  0  4  0  0  0  0  0  0
   -3.0138    1.2626  -11.2990 H   0  0  0  0  0  0  0  0  0  0  0  0
   -3.4854    3.4996  -10.4787 H   0  0  0  0  0  0  0  0  0  0  0  0
   -0.5058    2.6975  -10.3804 Si  0  0  0  0  0  4  0  0  0  0  0  0
   -0.2945    3.7588  -11.3722 H   0  0  0  0  0  0  0  0  0  0  0  0
    0.1705    1.4894  -10.9110 H   0  0  0  0  0  0  0  0  0  0  0  0
   -2.7709    2.3640   -7.2356 H   0  0  0  0  0  0  0  0  0  0  0  0
   -4.5714    1.1125   -8.1295 H   0  0  0  0  0  0  0  0  0  0  0  0
    3.2404    2.5815   -8.7921 H   0  0  0  0  0  0  0  0  0  0  0  0
    1.8727    0.6536   -8.5242 H   0  0  0  0  0  0  0  0  0  0  0  0
    2.7938    0.5295   -5.4303 H   0  0  0  0  0  0  0  0  0  0  0  0
    4.0577    2.5163   -5.6825 H   0  0  0  0  0  0  0  0  0  0  0  0
   -4.6352   -1.2483   -4.1561 H   0  0  0  0  0  0  0  0  0  0  0  0
   -3.4349    0.6587   -4.8861 H   0  0  0  0  0  0  0  0  0  0  0  0
  1  2  1  0
  1  5  1  0
  2  3  1  0
  2  4  1  0
  2 11  1  0
  5  6  1  0
  5  7  1  0
  5  8  1  0
  8  9  1  0
  8 36  1  0
  8 37  1  0
  9 14  1  0
  9 18  1  0
  9 19  1  0
 10 11  1  0
 10 15  1  0
 10 34  1  0
 10 35  1  0
 11 12  1  0
 11 13  1  0
 14 16  1  0
 14 20  1  0
 14 21  1  0
 15 17  1  0
 15 32  1  0
 15 33  1  0
 16 24  1  0
 16 30  1  0
 16 31  1  0
 17 22  1  0
 17 23  1  0
 17 27  1  0
 24 25  1  0
 24 26  1  0
 24 27  1  0
 27 28  1  0
 27 29  1  0
M  CHG  1   1   1
M  RAD  1   1   2
M  END
$$$$

     RDKit          3D

 37 37  0  0  0  0  0  0  0  0999 V2000
   -0.1623    0.0503   -3.2028 S   0  0  0  0  0  2  0  0  0  0  0  0
   -1.5526   -1.5020   -3.5856 Si  0  0  0  0  0  4  0  0  0  0  0  0
   -2.9521   -1.0812   -3.2959 H   0  0  0  0  0  0  0  0  0  0  0  0
   -1.2109   -2.6646   -2.7809 H   0  0  0  0  0  0  0  0  0  0  0  0
   -0.5045    1.7975   -4.3506 Si  0  0  0  0  0  4  0  0  0  0  0  0
   -1.9115    2.0901   -4.5762 H   0  0  0  0  0  0  0  0  0  0  0  0
    0.0641    2.9594   -3.6092 H   0  0  0  0  0  0  0  0  0  0  0  0
    0.6427    1.6625   -6.2747 Si  0  0  0  0  0  4  0  0  0  0  0  0
    0.2760    3.4449   -7.5573 Si  0  0  0  0  0  4  0  0  0  0  0  0
   -3.1941   -3.5511   -6.0615 Si  0  0  0  0  0  4  0  0  0  0  0  0
   -1.5393   -2.1131   -5.7544 Si  0  0  0  0  0  4  0  0  0  0  0  0
   -1.6965   -0.9580   -6.6310 H   0  0  0  0  0  0  0  0  0  0  0  0
   -0.2225   -2.7350   -6.0372 H   0  0  0  0  0  0  0  0  0  0  0  0
   -1.7410    4.3168   -7.1995 Si  0  0  0  0  0  4  0  0  0  0  0  0
   -4.6821   -2.8143   -7.5401 Si  0  0  0  0  0  4  0  0  0  0  0  0
   -3.2189    3.4691   -8.6336 Si  0  0  0  0  0  4  0  0  0  0  0  0
   -5.7268   -0.9971   -6.8316 Si  0  0  0  0  0  4  0  0  0  0  0  0
    0.3637    3.0071   -8.9664 H   0  0  0  0  0  0  0  0  0  0  0  0
    1.3205    4.4617   -7.3064 H   0  0  0  0  0  0  0  0  0  0  0  0
   -1.6642    5.7651   -7.4437 H   0  0  0  0  0  0  0  0  0  0  0  0
   -2.1951    4.1027   -5.8282 H   0  0  0  0  0  0  0  0  0  0  0  0
   -6.3769   -1.2731   -5.5579 H   0  0  0  0  0  0  0  0  0  0  0  0
   -6.7424   -0.6285   -7.8250 H   0  0  0  0  0  0  0  0  0  0  0  0
   -3.3260    1.2507   -8.4838 Si  0  0  0  0  0  4  0  0  0  0  0  0
   -4.1621    0.7596   -9.5914 H   0  0  0  0  0  0  0  0  0  0  0  0
   -1.9784    0.6935   -8.5672 H   0  0  0  0  0  0  0  0  0  0  0  0
   -4.3463    0.7164   -6.5781 Si  0  0  0  0  0  4  0  0  0  0  0  0
   -5.1466    1.8726   -6.1044 H   0  0  0  0  0  0  0  0  0  0  0  0
   -3.3461    0.4414   -5.5683 H   0  0  0  0  0  0  0  0  0  0  0  0
   -2.8090    3.7972  -10.0174 H   0  0  0  0  0  0  0  0  0  0  0  0
   -4.5263    4.0853   -8.3956 H   0  0  0  0  0  0  0  0  0  0  0  0
   -3.9990   -2.6071   -8.8120 H   0  0  0  0  0  0  0  0  0  0  0  0
   -5.6943   -3.8804   -7.7176 H   0  0  0  0  0  0  0  0  0  0  0  0
   -2.6158   -4.8064   -6.6095 H   0  0  0  0  0  0  0  0  0  0  0  0
   -3.8354   -3.9361   -4.7829 H   0  0  0  0  0  0  0  0  0  0  0  0
    2.0778    1.6245   -5.9054 H   0  0  0  0  0  0  0  0  0  0  0  0
    0.3017    0.4107   -6.9440 H   0  0  0  0  0  0  0  0  0  0  0  0
  1  2  1  0
  1  5  1  0
  2  3  1  0
  2  4  1  0
  2 11  1  0
  5  6  1  0
  5  7  1  0
  5  8  1  0
  8  9  1  0
  8 36  1  0
  8 37  1  0
  9 14  1  0
  9 18  1  0
  9 19  1  0
 10 11  1  0
 10 15  1  0
 10 34  1  0
 10 35  1  0
 11 12  1  0
 11 13  1  0
 14 16  1  0
 14 20  1  0
 14 21  1  0
 15 17  1  0
 15 32  1  0
 15 33  1  0
 16 24  1  0
 16 30  1  0
 16 31  1  0
 17 22  1  0
 17 23  1  0
 17 27  1  0
 24 25  1  0
 24 26  1  0
 24 27  1  0
 27 28  1  0
 27 29  1  0
M  CHG  1   1   1
M  RAD  1   1   2
M  END
$$$$

     RDKit          3D

 37 37  0  0  0  0  0  0  0  0999 V2000
   -0.1623    0.0503   -3.2028 S   0  0  0  0  0  2  0  0  0  0  0  0
    0.0321    1.7087   -4.5106 Si  0  0  0  0  0  4  0  0  0  0  0  0
   -0.5918    2.8869   -3.8422 H   0  0  0  0  0  0  0  0  0  0  0  0
   -0.6449    1.5348   -5.7776 H   0  0  0  0  0  0  0  0  0  0  0  0
   -1.4819   -1.4486   -3.9515 Si  0  0  0  0  0  4  0  0  0  0  0  0
   -1.6976   -2.4301   -2.8487 H   0  0  0  0  0  0  0  0  0  0  0  0
   -0.8686   -2.2309   -5.0510 H   0  0  0  0  0  0  0  0  0  0  0  0
   -3.4538   -0.6535   -4.5302 Si  0  0  0  0  0  4  0  0  0  0  0  0
   -3.4904    0.2373   -6.5469 Si  0  0  0  0  0  4  0  0  0  0  0  0
    3.0143    1.0690   -6.5852 Si  0  0  0  0  0  4  0  0  0  0  0  0
    2.1560    2.2413   -4.9075 Si  0  0  0  0  0  4  0  0  0  0  0  0
    2.9510    2.0015   -3.7061 H   0  0  0  0  0  0  0  0  0  0  0  0
    2.2592    3.6701   -5.2496 H   0  0  0  0  0  0  0  0  0  0  0  0
   -2.5541   -1.0527   -8.0858 Si  0  0  0  0  0  4  0  0  0  0  0  0
    2.5532    1.9633   -8.5628 Si  0  0  0  0  0  4  0  0  0  0  0  0
   -0.3616   -0.8221   -8.0695 Si  0  0  0  0  0  4  0  0  0  0  0  0
    2.7513    0.5295  -10.2248 Si  0  0  0  0  0  4  0  0  0  0  0  0
   -2.9127    1.6073   -6.5590 H   0  0  0  0  0  0  0  0  0  0  0  0
   -4.9204    0.4211   -6.9323 H   0  0  0  0  0  0  0  0  0  0  0  0
   -3.0530   -0.5953   -9.4136 H   0  0  0  0  0  0  0  0  0  0  0  0
   -2.9963   -2.4249   -7.8852 H   0  0  0  0  0  0  0  0  0  0  0  0
    1.5772    0.6943  -11.1240 H   0  0  0  0  0  0  0  0  0  0  0  0
    3.9437    0.7952  -11.0703 H   0  0  0  0  0  0  0  0  0  0  0  0
    0.6865   -2.2975   -9.3287 Si  0  0  0  0  0  4  0  0  0  0  0  0
    0.7829   -3.5914   -8.6004 H   0  0  0  0  0  0  0  0  0  0  0  0
    0.0569   -2.5027  -10.6282 H   0  0  0  0  0  0  0  0  0  0  0  0
    2.8121   -1.5772   -9.5655 Si  0  0  0  0  0  4  0  0  0  0  0  0
    3.4211   -1.6497   -8.2228 H   0  0  0  0  0  0  0  0  0  0  0  0
    3.5079   -2.3976  -10.5456 H   0  0  0  0  0  0  0  0  0  0  0  0
    0.2089   -0.8742   -6.7115 H   0  0  0  0  0  0  0  0  0  0  0  0
   -0.0368    0.5368   -8.5893 H   0  0  0  0  0  0  0  0  0  0  0  0
    3.5277    3.0680   -8.7906 H   0  0  0  0  0  0  0  0  0  0  0  0
    1.2323    2.5745   -8.5329 H   0  0  0  0  0  0  0  0  0  0  0  0
    4.4970    1.0994   -6.4260 H   0  0  0  0  0  0  0  0  0  0  0  0
    2.6372   -0.3529   -6.5282 H   0  0  0  0  0  0  0  0  0  0  0  0
   -3.8934    0.3247   -3.5567 H   0  0  0  0  0  0  0  0  0  0  0  0
   -4.4318   -1.7728   -4.4998 H   0  0  0  0  0  0  0  0  0  0  0  0
  1  2  1  0
  1  5  1  0
  2  3  1  0
  2  4  1  0
  2 11  1  0
  5  6  1  0
  5  7  1  0
  5  8  1  0
  8  9  1  0
  8 36  1  0
  8 37  1  0
  9 14  1  0
  9 18  1  0
  9 19  1  0
 10 11  1  0
 10 15  1  0
 10 34  1  0
 10 35  1  0
 11 12  1  0
 11 13  1  0
 14 16  1  0
 14 20  1  0
 14 21  1  0
 15 17  1  0
 15 32  1  0
 15 33  1  0
 16 24  1  0
 16 30  1  0
 16 31  1  0
 17 22  1  0
 17 23  1  0
 17 27  1  0
 24 25  1  0
 24 26  1  0
 24 27  1  0
 27 28  1  0
 27 29  1  0
M  CHG  1   1   1
M  RAD  1   1   2
M  END
$$$$

     RDKit          3D

 37 37  0  0  0  0  0  0  0  0999 V2000
   -0.1623    0.0503   -3.2028 S   0  0  0  0  0  2  0  0  0  0  0  0
    0.8647   -1.7612   -3.5938 Si  0  0  0  0  0  4  0  0  0  0  0  0
    0.0241   -2.9544   -3.2950 H   0  0  0  0  0  0  0  0  0  0  0  0
    2.0831   -1.8056   -2.8005 H   0  0  0  0  0  0  0  0  0  0  0  0
   -1.9386    0.2795   -4.3341 Si  0  0  0  0  0  4  0  0  0  0  0  0
   -2.6648   -0.9621   -4.5517 H   0  0  0  0  0  0  0  0  0  0  0  0
   -2.8528    1.1882   -3.5848 H   0  0  0  0  0  0  0  0  0  0  0  0
   -1.4645    1.3228   -6.2637 Si  0  0  0  0  0  4  0  0  0  0  0  0
   -3.2832    1.5397   -7.5293 Si  0  0  0  0  0  4  0  0  0  0  0  0
    2.2632   -3.9704   -6.0810 Si  0  0  0  0  0  4  0  0  0  0  0  0
    1.4278   -1.9446   -5.7678 Si  0  0  0  0  0  4  0  0  0  0  0  0
    0.2743   -1.7277   -6.6337 H   0  0  0  0  0  0  0  0  0  0  0  0
    2.4329   -0.8935   -6.0611 H   0  0  0  0  0  0  0  0  0  0  0  0
   -4.7469   -0.0958   -7.1563 Si  0  0  0  0  0  4  0  0  0  0  0  0
    1.0783   -5.1489   -7.5474 Si  0  0  0  0  0  4  0  0  0  0  0  0
   -4.4257   -1.7677   -8.5920 Si  0  0  0  0  0  4  0  0  0  0  0  0
   -0.9699   -5.5621   -6.8192 Si  0  0  0  0  0  4  0  0  0  0  0  0
   -2.8536    1.4827   -8.9425 H   0  0  0  0  0  0  0  0  0  0  0  0
   -3.9134    2.8532   -7.2736 H   0  0  0  0  0  0  0  0  0  0  0  0
   -6.0981    0.4366   -7.3881 H   0  0  0  0  0  0  0  0  0  0  0  0
   -4.6750   -0.5931   -5.7851 H   0  0  0  0  0  0  0  0  0  0  0  0
   -0.9024   -6.2650   -5.5454 H   0  0  0  0  0  0  0  0  0  0  0  0
   -1.6511   -6.4089   -7.8055 H   0  0  0  0  0  0  0  0  0  0  0  0
   -2.3548   -2.5733   -8.4610 Si  0  0  0  0  0  4  0  0  0  0  0  0
   -2.1649   -3.5231   -9.5696 H   0  0  0  0  0  0  0  0  0  0  0  0
   -1.3994   -1.4724   -8.5544 H   0  0  0  0  0  0  0  0  0  0  0  0
   -2.1540   -3.7088   -6.5561 Si  0  0  0  0  0  4  0  0  0  0  0  0
   -3.4999   -4.1002   -6.0694 H   0  0  0  0  0  0  0  0  0  0  0  0
   -1.5662   -2.8467   -5.5526 H   0  0  0  0  0  0  0  0  0  0  0  0
   -4.6198   -1.2759   -9.9744 H   0  0  0  0  0  0  0  0  0  0  0  0
   -5.4228   -2.8116   -8.3436 H   0  0  0  0  0  0  0  0  0  0  0  0
    1.0866   -4.4365   -8.8200 H   0  0  0  0  0  0  0  0  0  0  0  0
    1.7662   -6.4473   -7.7302 H   0  0  0  0  0  0  0  0  0  0  0  0
    3.6320   -3.8211   -6.6421 H   0  0  0  0  0  0  0  0  0  0  0  0
    2.4368   -4.6997   -4.8033 H   0  0  0  0  0  0  0  0  0  0  0  0
   -0.9695    2.6719   -5.9002 H   0  0  0  0  0  0  0  0  0  0  0  0
   -0.3921    0.6015   -6.9425 H   0  0  0  0  0  0  0  0  0  0  0  0
  1  2  1  0
  1  5  1  0
  2  3  1  0
  2  4  1  0
  2 11  1  0
  5  6  1  0
  5  7  1  0
  5  8  1  0
  8  9  1  0
  8 36  1  0
  8 37  1  0
  9 14  1  0
  9 18  1  0
  9 19  1  0
 10 11  1  0
 10 15  1  0
 10 34  1  0
 10 35  1  0
 11 12  1  0
 11 13  1  0
 14 16  1  0
 14 20  1  0
 14 21  1  0
 15 17  1  0
 15 32  1  0
 15 33  1  0
 16 24  1  0
 16 30  1  0
 16 31  1  0
 17 22  1  0
 17 23  1  0
 17 27  1  0
 24 25  1  0
 24 26  1  0
 24 27  1  0
 27 28  1  0
 27 29  1  0
M  CHG  1   1   1
M  RAD  1   1   2
M  END
$$$$

     RDKit          3D

 37 37  0  0  0  0  0  0  0  0999 V2000
   -0.1623    0.0503   -3.2028 S   0  0  0  0  0  2  0  0  0  0  0  0
   -0.1309    1.7203   -4.5100 Si  0  0  0  0  0  4  0  0  0  0  0  0
   -0.8659    2.8320   -3.8407 H   0  0  0  0  0  0  0  0  0  0  0  0
   -0.7887    1.4818   -5.7767 H   0  0  0  0  0  0  0  0  0  0  0  0
   -1.3305   -1.5695   -3.9513 Si  0  0  0  0  0  4  0  0  0  0  0  0
   -1.4490   -2.5677   -2.8488 H   0  0  0  0  0  0  0  0  0  0  0  0
   -0.6449   -2.2880   -5.0515 H   0  0  0  0  0  0  0  0  0  0  0  0
   -3.3708   -0.9696   -4.5284 Si  0  0  0  0  0  4  0  0  0  0  0  0
   -3.4951   -0.0857   -6.5447 Si  0  0  0  0  0  4  0  0  0  0  0  0
    2.8979    1.3741   -6.5869 Si  0  0  0  0  0  4  0  0  0  0  0  0
    1.9309    2.4569   -4.9081 Si  0  0  0  0  0  4  0  0  0  0  0  0
    2.7463    2.2950   -3.7073 H   0  0  0  0  0  0  0  0  0  0  0  0
    1.8945    3.8891   -5.2497 H   0  0  0  0  0  0  0  0  0  0  0  0
   -2.4390   -1.2781   -8.0847 Si  0  0  0  0  0  4  0  0  0  0  0  0
    2.3507    2.2201   -8.5638 Si  0  0  0  0  0  4  0  0  0  0  0  0
   -0.2792   -0.8356   -8.0698 Si  0  0  0  0  0  4  0  0  0  0  0  0
    2.6860    0.8130  -10.2265 Si  0  0  0  0  0  4  0  0  0  0  0  0
   -3.0534    1.3338   -6.5565 H   0  0  0  0  0  0  0  0  0  0  0  0
   -4.9365   -0.0417   -6.9290 H   0  0  0  0  0  0  0  0  0  0  0  0
   -2.9809   -0.8709   -9.4120 H   0  0  0  0  0  0  0  0  0  0  0  0
   -2.7456   -2.6869   -7.8844 H   0  0  0  0  0  0  0  0  0  0  0  0
    1.5008    0.8632  -11.1249 H   0  0  0  0  0  0  0  0  0  0  0  0
    3.8464    1.1936  -11.0727 H   0  0  0  0  0  0  0  0  0  0  0  0
    0.9064   -2.2016   -9.3303 Si  0  0  0  0  0  4  0  0  0  0  0  0
    1.1285   -3.4803   -8.6026 H   0  0  0  0  0  0  0  0  0  0  0  0
    0.2988   -2.4666  -10.6295 H   0  0  0  0  0  0  0  0  0  0  0  0
    2.9517   -1.2782   -9.5681 Si  0  0  0  0  0  4  0  0  0  0  0  0
    3.5658   -1.2916   -8.2259 H   0  0  0  0  0  0  0  0  0  0  0  0
    3.7233   -2.0267  -10.5491 H   0  0  0  0  0  0  0  0  0  0  0  0
    0.2945   -0.8325   -6.7122 H   0  0  0  0  0  0  0  0  0  0  0  0
   -0.0885    0.5487   -8.5892 H   0  0  0  0  0  0  0  0  0  0  0  0
    3.2130    3.4144   -8.7918 H   0  0  0  0  0  0  0  0  0  0  0  0
    0.9766    2.7000   -8.5328 H   0  0  0  0  0  0  0  0  0  0  0  0
    4.3708    1.5484   -6.4286 H   0  0  0  0  0  0  0  0  0  0  0  0
    2.6608   -0.0777   -6.5302 H   0  0  0  0  0  0  0  0  0  0  0  0
   -3.9026   -0.0391   -3.5541 H   0  0  0  0  0  0  0  0  0  0  0  0
   -4.2353   -2.1786   -4.4978 H   0  0  0  0  0  0  0  0  0  0  0  0
  1  2  1  0
  1  5  1  0
  2  3  1  0
  2  4  1  0
  2 11  1  0
  5  6  1  0
  5  7  1  0
  5  8  1  0
  8  9  1  0
  8 36  1  0
  8 37  1  0
  9 14  1  0
  9 18  1  0
  9 19  1  0
 10 11  1  0
 10 15  1  0
 10 34  1  0
 10 35  1  0
 11 12  1  0
 11 13  1  0
 14 16  1  0
 14 20  1  0
 14 21  1  0
 15 17  1  0
 15 32  1  0
 15 33  1  0
 16 24  1  0
 16 30  1  0
 16 31  1  0
 17 22  1  0
 17 23  1  0
 17 27  1  0
 24 25  1  0
 24 26  1  0
 24 27  1  0
 27 28  1  0
 27 29  1  0
M  CHG  1   1   1
M  RAD  1   1   2
M  END
$$$$

     RDKit          3D

 37 37  0  0  0  0  0  0  0  0999 V2000
   -0.1623    0.0503   -3.2028 S   0  0  0  0  0  2  0  0  0  0  0  0
   -1.8468    0.0111   -4.4910 Si  0  0  0  0  0  4  0  0  0  0  0  0
   -2.9208   -0.7653   -3.8071 H   0  0  0  0  0  0  0  0  0  0  0  0
   -1.5967   -0.6407   -5.7585 H   0  0  0  0  0  0  0  0  0  0  0  0
    1.4941   -1.0550   -3.9665 Si  0  0  0  0  0  4  0  0  0  0  0  0
    2.5086   -1.1302   -2.8751 H   0  0  0  0  0  0  0  0  0  0  0  0
    2.1724   -0.3449   -5.0767 H   0  0  0  0  0  0  0  0  0  0  0  0
    0.9694   -3.1193   -4.5311 Si  0  0  0  0  0  4  0  0  0  0  0  0
    0.0685   -3.2851   -6.5369 Si  0  0  0  0  0  4  0  0  0  0  0  0
   -1.6449    3.0447   -6.5799 Si  0  0  0  0  0  4  0  0  0  0  0  0
   -2.6693    2.0408   -4.8862 Si  0  0  0  0  0  4  0  0  0  0  0  0
   -2.5265    2.8658   -3.6896 H   0  0  0  0  0  0  0  0  0  0  0  0
   -4.1027    1.9464   -5.2114 H   0  0  0  0  0  0  0  0  0  0  0  0
    1.2005   -2.1873   -8.0933 Si  0  0  0  0  0  4  0  0  0  0  0  0
   -2.4906    2.4581   -8.5456 Si  0  0  0  0  0  4  0  0  0  0  0  0
    0.6726   -0.0468   -8.0792 Si  0  0  0  0  0  4  0  0  0  0  0  0
   -1.1168    2.8438  -10.2251 Si  0  0  0  0  0  4  0  0  0  0  0  0
   -1.3676   -2.9001   -6.5338 H   0  0  0  0  0  0  0  0  0  0  0  0
    0.0774   -4.7283   -6.9168 H   0  0  0  0  0  0  0  0  0  0  0  0
    0.8002   -2.7492   -9.4144 H   0  0  0  0  0  0  0  0  0  0  0  0
    2.6225   -2.4371   -7.9082 H   0  0  0  0  0  0  0  0  0  0  0  0
   -1.1300    1.6546  -11.1196 H   0  0  0  0  0  0  0  0  0  0  0  0
   -1.5528    3.9854  -11.0701 H   0  0  0  0  0  0  0  0  0  0  0  0
    1.9761    1.1882   -9.3584 Si  0  0  0  0  0  4  0  0  0  0  0  0
    3.2531    1.4633   -8.6460 H   0  0  0  0  0  0  0  0  0  0  0  0
    2.2504    0.5875  -10.6589 H   0  0  0  0  0  0  0  0  0  0  0  0
    0.9694    3.1944   -9.5913 Si  0  0  0  0  0  4  0  0  0  0  0  0
    0.9735    3.8128   -8.2510 H   0  0  0  0  0  0  0  0  0  0  0  0
    1.6755    3.9920  -10.5828 H   0  0  0  0  0  0  0  0  0  0  0  0
    0.6620    0.5307   -6.7232 H   0  0  0  0  0  0  0  0  0  0  0  0
   -0.7239    0.0872   -8.5833 H   0  0  0  0  0  0  0  0  0  0  0  0
   -3.7208    3.2715   -8.7623 H   0  0  0  0  0  0  0  0  0  0  0  0
   -2.9151    1.0661   -8.5053 H   0  0  0  0  0  0  0  0  0  0  0  0
   -1.8758    4.5100   -6.4237 H   0  0  0  0  0  0  0  0  0  0  0  0
   -0.1842    2.8657   -6.5392 H   0  0  0  0  0  0  0  0  0  0  0  0
    0.0718   -3.6846   -3.5449 H   0  0  0  0  0  0  0  0  0  0  0  0
    2.2121   -3.9350   -4.5120 H   0  0  0  0  0  0  0  0  0  0  0  0
  1  2  1  0
  1  5  1  0
  2  3  1  0
  2  4  1  0
  2 11  1  0
  5  6  1  0
  5  7  1  0
  5  8  1  0
  8  9  1  0
  8 36  1  0
  8 37  1  0
  9 14  1  0
  9 18  1  0
  9 19  1  0
 10 11  1  0
 10 15  1  0
 10 34  1  0
 10 35  1  0
 11 12  1  0
 11 13  1  0
 14 16  1  0
 14 20  1  0
 14 21  1  0
 15 17  1  0
 15 32  1  0
 15 33  1  0
 16 24  1  0
 16 30  1  0
 16 31  1  0
 17 22  1  0
 17 23  1  0
 17 27  1  0
 24 25  1  0
 24 26  1  0
 24 27  1  0
 27 28  1  0
 27 29  1  0
M  CHG  1   1   1
M  RAD  1   1   2
M  END
$$$$

     RDKit          3D

 37 37  0  0  0  0  0  0  0  0999 V2000
   -0.1623    0.0503   -3.2028 S   0  0  0  0  0  2  0  0  0  0  0  0
   -0.6431   -1.1816   -4.8712 Si  0  0  0  0  0  4  0  0  0  0  0  0
    0.5250   -2.0063   -5.2166 H   0  0  0  0  0  0  0  0  0  0  0  0
   -1.0864   -0.3582   -6.0147 H   0  0  0  0  0  0  0  0  0  0  0  0
    0.4945    1.9806   -3.8408 Si  0  0  0  0  0  4  0  0  0  0  0  0
   -0.5381    2.6952   -4.5881 H   0  0  0  0  0  0  0  0  0  0  0  0
    0.7982    2.7749   -2.6407 H   0  0  0  0  0  0  0  0  0  0  0  0
    2.3456    1.8737   -5.0645 Si  0  0  0  0  0  4  0  0  0  0  0  0
    2.0431    0.8231   -6.9822 Si  0  0  0  0  0  4  0  0  0  0  0  0
   -4.0653   -1.4387   -3.6478 Si  0  0  0  0  0  4  0  0  0  0  0  0
   -2.3272   -2.5872   -4.4014 Si  0  0  0  0  0  4  0  0  0  0  0  0
   -1.8717   -3.6147   -3.4810 H   0  0  0  0  0  0  0  0  0  0  0  0
   -2.7238   -3.2077   -5.6932 H   0  0  0  0  0  0  0  0  0  0  0  0
    1.2645    2.1561   -8.5794 Si  0  0  0  0  0  4  0  0  0  0  0  0
   -4.2131    0.5627   -4.6167 Si  0  0  0  0  0  4  0  0  0  0  0  0
   -0.8561    1.7500   -9.0642 Si  0  0  0  0  0  4  0  0  0  0  0  0
   -4.4695    0.2974   -6.8262 Si  0  0  0  0  0  4  0  0  0  0  0  0
    1.1647   -0.3501   -6.8521 H   0  0  0  0  0  0  0  0  0  0  0  0
    3.3730    0.2890   -7.3940 H   0  0  0  0  0  0  0  0  0  0  0  0
    1.4819    3.5739   -8.1942 H   0  0  0  0  0  0  0  0  0  0  0  0
    2.0693    1.9584   -9.8137 H   0  0  0  0  0  0  0  0  0  0  0  0
   -5.8248   -0.2374   -7.0392 H   0  0  0  0  0  0  0  0  0  0  0  0
   -3.5307   -0.7064   -7.3472 H   0  0  0  0  0  0  0  0  0  0  0  0
   -2.2496    3.0347   -7.9076 Si  0  0  0  0  0  4  0  0  0  0  0  0
   -1.8231    3.2553   -6.5379 H   0  0  0  0  0  0  0  0  0  0  0  0
   -2.2974    4.3564   -8.5729 H   0  0  0  0  0  0  0  0  0  0  0  0
   -4.3174    2.2273   -7.9039 Si  0  0  0  0  0  4  0  0  0  0  0  0
   -4.8055    2.0228   -9.2784 H   0  0  0  0  0  0  0  0  0  0  0  0
   -5.1830    3.2024   -7.2209 H   0  0  0  0  0  0  0  0  0  0  0  0
   -1.1398    0.3180   -8.8973 H   0  0  0  0  0  0  0  0  0  0  0  0
   -1.0695    2.0503  -10.5076 H   0  0  0  0  0  0  0  0  0  0  0  0
   -3.0225    1.3455   -4.2970 H   0  0  0  0  0  0  0  0  0  0  0  0
   -5.4471    1.2081   -4.0866 H   0  0  0  0  0  0  0  0  0  0  0  0
   -3.8968   -1.2255   -2.2015 H   0  0  0  0  0  0  0  0  0  0  0  0
   -5.3053   -2.1995   -3.8530 H   0  0  0  0  0  0  0  0  0  0  0  0
    3.3708    1.1672   -4.2609 H   0  0  0  0  0  0  0  0  0  0  0  0
    2.8078    3.2363   -5.3227 H   0  0  0  0  0  0  0  0  0  0  0  0
  1  2  1  0
  1  5  1  0
  2  3  1  0
  2  4  1  0
  2 11  1  0
  5  6  1  0
  5  7  1  0
  5  8  1  0
  8  9  1  0
  8 36  1  0
  8 37  1  0
  9 14  1  0
  9 18  1  0
  9 19  1  0
 10 11  1  0
 10 15  1  0
 10 34  1  0
 10 35  1  0
 11 12  1  0
 11 13  1  0
 14 16  1  0
 14 20  1  0
 14 21  1  0
 15 17  1  0
 15 32  1  0
 15 33  1  0
 16 24  1  0
 16 30  1  0
 16 31  1  0
 17 22  1  0
 17 23  1  0
 17 27  1  0
 24 25  1  0
 24 26  1  0
 24 27  1  0
 27 28  1  0
 27 29  1  0
M  CHG  1   1   1
M  RAD  1   1   2
M  END
$$$$

     RDKit          3D

 37 37  0  0  0  0  0  0  0  0999 V2000
   -0.1623    0.0503   -3.2028 S   0  0  0  0  0  2  0  0  0  0  0  0
   -1.8418    0.1746   -4.4922 Si  0  0  0  0  0  4  0  0  0  0  0  0
   -2.9867   -0.4935   -3.8087 H   0  0  0  0  0  0  0  0  0  0  0  0
   -1.6554   -0.4990   -5.7592 H   0  0  0  0  0  0  0  0  0  0  0  0
    1.3793   -1.2111   -3.9649 Si  0  0  0  0  0  4  0  0  0  0  0  0
    2.3809   -1.3842   -2.8728 H   0  0  0  0  0  0  0  0  0  0  0  0
    2.1241   -0.5708   -5.0749 H   0  0  0  0  0  0  0  0  0  0  0  0
    0.6567   -3.2149   -4.5292 Si  0  0  0  0  0  4  0  0  0  0  0  0
   -0.2547   -3.2931   -6.5355 Si  0  0  0  0  0  4  0  0  0  0  0  0
   -1.3444    3.1732   -6.5820 Si  0  0  0  0  0  4  0  0  0  0  0  0
   -2.4628    2.2744   -4.8887 Si  0  0  0  0  0  4  0  0  0  0  0  0
   -2.2412    3.0821   -3.6923 H   0  0  0  0  0  0  0  0  0  0  0  0
   -3.8983    2.3197   -5.2149 H   0  0  0  0  0  0  0  0  0  0  0  0
    0.9797   -2.3113   -8.0915 Si  0  0  0  0  0  4  0  0  0  0  0  0
   -2.2419    2.6708   -8.5481 Si  0  0  0  0  0  4  0  0  0  0  0  0
    0.6624   -0.1296   -8.0786 Si  0  0  0  0  0  4  0  0  0  0  0  0
   -0.8360    2.9203  -10.2268 Si  0  0  0  0  0  4  0  0  0  0  0  0
   -1.6466   -2.7704   -6.5336 H   0  0  0  0  0  0  0  0  0  0  0  0
   -0.3859   -4.7306   -6.9148 H   0  0  0  0  0  0  0  0  0  0  0  0
    0.5275   -2.8322   -9.4127 H   0  0  0  0  0  0  0  0  0  0  0  0
    2.3705   -2.6981   -7.9054 H   0  0  0  0  0  0  0  0  0  0  0  0
   -0.9641    1.7377  -11.1209 H   0  0  0  0  0  0  0  0  0  0  0  0
   -1.1583    4.0985  -11.0725 H   0  0  0  0  0  0  0  0  0  0  0  0
    2.0807    0.9722   -9.3573 Si  0  0  0  0  0  4  0  0  0  0  0  0
    3.3779    1.1221   -8.6441 H   0  0  0  0  0  0  0  0  0  0  0  0
    2.2961    0.3471  -10.6574 H   0  0  0  0  0  0  0  0  0  0  0  0
    1.2740    3.0667   -9.5917 Si  0  0  0  0  0  4  0  0  0  0  0  0
    1.3373    3.6824   -8.2516 H   0  0  0  0  0  0  0  0  0  0  0  0
    2.0550    3.7914  -10.5829 H   0  0  0  0  0  0  0  0  0  0  0  0
    0.7071    0.4467   -6.7228 H   0  0  0  0  0  0  0  0  0  0  0  0
   -0.7141    0.1393   -8.5837 H   0  0  0  0  0  0  0  0  0  0  0  0
   -3.3870    3.5999   -8.7659 H   0  0  0  0  0  0  0  0  0  0  0  0
   -2.7998    1.3267   -8.5076 H   0  0  0  0  0  0  0  0  0  0  0  0
   -1.4319    4.6541   -6.4265 H   0  0  0  0  0  0  0  0  0  0  0  0
    0.0918    2.8530   -6.5402 H   0  0  0  0  0  0  0  0  0  0  0  0
   -0.2923   -3.6898   -3.5434 H   0  0  0  0  0  0  0  0  0  0  0  0
    1.8142   -4.1475   -4.5089 H   0  0  0  0  0  0  0  0  0  0  0  0
  1  2  1  0
  1  5  1  0
  2  3  1  0
  2  4  1  0
  2 11  1  0
  5  6  1  0
  5  7  1  0
  5  8  1  0
  8  9  1  0
  8 36  1  0
  8 37  1  0
  9 14  1  0
  9 18  1  0
  9 19  1  0
 10 11  1  0
 10 15  1  0
 10 34  1  0
 10 35  1  0
 11 12  1  0
 11 13  1  0
 14 16  1  0
 14 20  1  0
 14 21  1  0
 15 17  1  0
 15 32  1  0
 15 33  1  0
 16 24  1  0
 16 30  1  0
 16 31  1  0
 17 22  1  0
 17 23  1  0
 17 27  1  0
 24 25  1  0
 24 26  1  0
 24 27  1  0
 27 28  1  0
 27 29  1  0
M  CHG  1   1   1
M  RAD  1   1   2
M  END
$$$$

     RDKit          3D

 37 37  0  0  0  0  0  0  0  0999 V2000
   -0.1623    0.0503   -3.2028 S   0  0  0  0  0  2  0  0  0  0  0  0
   -2.0450   -0.8421   -3.5882 Si  0  0  0  0  0  4  0  0  0  0  0  0
   -3.1723    0.0893   -3.3032 H   0  0  0  0  0  0  0  0  0  0  0  0
   -2.1829   -2.0444   -2.7813 H   0  0  0  0  0  0  0  0  0  0  0  0
    0.2028    1.7910   -4.3535 Si  0  0  0  0  0  4  0  0  0  0  0  0
   -0.9801    2.6059   -4.5836 H   0  0  0  0  0  0  0  0  0  0  0  0
    1.1757    2.6430   -3.6116 H   0  0  0  0  0  0  0  0  0  0  0  0
    1.2124    1.2174   -6.2740 Si  0  0  0  0  0  4  0  0  0  0  0  0
    1.5688    2.9998   -7.5595 Si  0  0  0  0  0  4  0  0  0  0  0  0
   -4.3468   -2.0993   -6.0669 Si  0  0  0  0  0  4  0  0  0  0  0  0
   -2.2646   -1.4151   -5.7563 Si  0  0  0  0  0  4  0  0  0  0  0  0
   -1.9593   -0.2913   -6.6346 H   0  0  0  0  0  0  0  0  0  0  0  0
   -1.2914   -2.4996   -6.0345 H   0  0  0  0  0  0  0  0  0  0  0  0
    0.0471    4.5866   -7.2088 Si  0  0  0  0  0  4  0  0  0  0  0  0
   -5.4289   -0.8462   -7.5508 Si  0  0  0  0  0  4  0  0  0  0  0  0
   -1.6405    4.3754   -8.6464 Si  0  0  0  0  0  4  0  0  0  0  0  0
   -5.6887    1.2355   -6.8474 Si  0  0  0  0  0  4  0  0  0  0  0  0
    1.4832    2.5593   -8.9678 H   0  0  0  0  0  0  0  0  0  0  0  0
    2.9253    3.5323   -7.3065 H   0  0  0  0  0  0  0  0  0  0  0  0
    0.6802    5.8912   -7.4542 H   0  0  0  0  0  0  0  0  0  0  0  0
   -0.4578    4.5683   -5.8386 H   0  0  0  0  0  0  0  0  0  0  0  0
   -6.3980    1.2360   -5.5753 H   0  0  0  0  0  0  0  0  0  0  0  0
   -6.4794    1.9670   -7.8443 H   0  0  0  0  0  0  0  0  0  0  0  0
   -2.6001    2.3725   -8.4947 Si  0  0  0  0  0  4  0  0  0  0  0  0
   -3.5586    2.2418   -9.6043 H   0  0  0  0  0  0  0  0  0  0  0  0
   -1.5739    1.3361   -8.5734 H   0  0  0  0  0  0  0  0  0  0  0  0
   -3.7523    2.2799   -6.5915 Si  0  0  0  0  0  4  0  0  0  0  0  0
   -4.0426    3.6570   -6.1215 H   0  0  0  0  0  0  0  0  0  0  0  0
   -2.9394    1.6407   -5.5784 H   0  0  0  0  0  0  0  0  0  0  0  0
   -1.1321    4.5158  -10.0293 H   0  0  0  0  0  0  0  0  0  0  0  0
   -2.6071    5.4509   -8.4130 H   0  0  0  0  0  0  0  0  0  0  0  0
   -4.7159   -0.9229   -8.8208 H   0  0  0  0  0  0  0  0  0  0  0  0
   -6.7750   -1.4366   -7.7302 H   0  0  0  0  0  0  0  0  0  0  0  0
   -4.2994   -3.4818   -6.6118 H   0  0  0  0  0  0  0  0  0  0  0  0
   -5.0903   -2.2027   -4.7899 H   0  0  0  0  0  0  0  0  0  0  0  0
    2.5195    0.6266   -5.9003 H   0  0  0  0  0  0  0  0  0  0  0  0
    0.4142    0.1945   -6.9430 H   0  0  0  0  0  0  0  0  0  0  0  0
  1  2  1  0
  1  5  1  0
  2  3  1  0
  2  4  1  0
  2 11  1  0
  5  6  1  0
  5  7  1  0
  5  8  1  0
  8  9  1  0
  8 36  1  0
  8 37  1  0
  9 14  1  0
  9 18  1  0
  9 19  1  0
 10 11  1  0
 10 15  1  0
 10 34  1  0
 10 35  1  0
 11 12  1  0
 11 13  1  0
 14 16  1  0
 14 20  1  0
 14 21  1  0
 15 17  1  0
 15 32  1  0
 15 33  1  0
 16 24  1  0
 16 30  1  0
 16 31  1  0
 17 22  1  0
 17 23  1  0
 17 27  1  0
 24 25  1  0
 24 26  1  0
 24 27  1  0
 27 28  1  0
 27 29  1  0
M  CHG  1   1   1
M  RAD  1   1   2
M  END
$$$$

     RDKit          3D

 37 37  0  0  0  0  0  0  0  0999 V2000
   -0.1623    0.0503   -3.2028 S   0  0  0  0  0  2  0  0  0  0  0  0
   -0.2199    1.7198   -4.5097 Si  0  0  0  0  0  4  0  0  0  0  0  0
   -1.0125    2.7909   -3.8398 H   0  0  0  0  0  0  0  0  0  0  0  0
   -0.8646    1.4471   -5.7761 H   0  0  0  0  0  0  0  0  0  0  0  0
   -1.2434   -1.6289   -3.9512 Si  0  0  0  0  0  4  0  0  0  0  0  0
   -1.3084   -2.6322   -2.8489 H   0  0  0  0  0  0  0  0  0  0  0  0
   -0.5211   -2.3099   -5.0519 H   0  0  0  0  0  0  0  0  0  0  0  0
   -3.3128   -1.1378   -4.5274 Si  0  0  0  0  0  4  0  0  0  0  0  0
   -3.4845   -0.2614   -6.5435 Si  0  0  0  0  0  4  0  0  0  0  0  0
    2.8222    1.5350   -6.5877 Si  0  0  0  0  0  4  0  0  0  0  0  0
    1.7999    2.5647   -4.9083 Si  0  0  0  0  0  4  0  0  0  0  0  0
    2.6231    2.4460   -3.7079 H   0  0  0  0  0  0  0  0  0  0  0  0
    1.6875    3.9930   -5.2496 H   0  0  0  0  0  0  0  0  0  0  0  0
   -2.3673   -1.3958   -8.0842 Si  0  0  0  0  0  4  0  0  0  0  0  0
    2.2303    2.3513   -8.5642 Si  0  0  0  0  0  4  0  0  0  0  0  0
   -0.2340   -0.8395   -8.0699 Si  0  0  0  0  0  4  0  0  0  0  0  0
    2.6390    0.9642  -10.2274 Si  0  0  0  0  0  4  0  0  0  0  0  0
   -3.1186    1.1796   -6.5552 H   0  0  0  0  0  0  0  0  0  0  0  0
   -4.9264   -0.2936   -6.9272 H   0  0  0  0  0  0  0  0  0  0  0  0
   -2.9305   -1.0176   -9.4112 H   0  0  0  0  0  0  0  0  0  0  0  0
   -2.5988   -2.8189   -7.8841 H   0  0  0  0  0  0  0  0  0  0  0  0
    1.4524    0.9518  -11.1253 H   0  0  0  0  0  0  0  0  0  0  0  0
    3.7772    1.4059  -11.0739 H   0  0  0  0  0  0  0  0  0  0  0  0
    1.0218   -2.1406   -9.3312 Si  0  0  0  0  0  4  0  0  0  0  0  0
    1.3117   -3.4059   -8.6039 H   0  0  0  0  0  0  0  0  0  0  0  0
    0.4286   -2.4371  -10.6302 H   0  0  0  0  0  0  0  0  0  0  0  0
    3.0153   -1.1100   -9.5696 Si  0  0  0  0  0  4  0  0  0  0  0  0
    3.6297   -1.0912   -8.2276 H   0  0  0  0  0  0  0  0  0  0  0  0
    3.8251   -1.8164  -10.5509 H   0  0  0  0  0  0  0  0  0  0  0  0
    0.3393   -0.8063   -6.7125 H   0  0  0  0  0  0  0  0  0  0  0  0
   -0.1170    0.5530   -8.5891 H   0  0  0  0  0  0  0  0  0  0  0  0
    3.0280    3.5896   -8.7922 H   0  0  0  0  0  0  0  0  0  0  0  0
    0.8327    2.7577   -8.5326 H   0  0  0  0  0  0  0  0  0  0  0  0
    4.2838    1.7870   -6.4299 H   0  0  0  0  0  0  0  0  0  0  0  0
    2.6623    0.0727   -6.5313 H   0  0  0  0  0  0  0  0  0  0  0  0
   -3.8928   -0.2370   -3.5528 H   0  0  0  0  0  0  0  0  0  0  0  0
   -4.1120   -2.3909   -4.4968 H   0  0  0  0  0  0  0  0  0  0  0  0
  1  2  1  0
  1  5  1  0
  2  3  1  0
  2  4  1  0
  2 11  1  0
  5  6  1  0
  5  7  1  0
  5  8  1  0
  8  9  1  0
  8 36  1  0
  8 37  1  0
  9 14  1  0
  9 18  1  0
  9 19  1  0
 10 11  1  0
 10 15  1  0
 10 34  1  0
 10 35  1  0
 11 12  1  0
 11 13  1  0
 14 16  1  0
 14 20  1  0
 14 21  1  0
 15 17  1  0
 15 32  1  0
 15 33  1  0
 16 24  1  0
 16 30  1  0
 16 31  1  0
 17 22  1  0
 17 23  1  0
 17 27  1  0
 24 25  1  0
 24 26  1  0
 24 27  1  0
 27 28  1  0
 27 29  1  0
M  CHG  1   1   1
M  RAD  1   1   2
M  END
$$$$
