
     RDKit          3D

 37 37  0  0  0  0  0  0  0  0999 V2000
    0.9751    0.2967    1.9138 S   0  0  0  0  0  2  0  0  0  0  0  0
   -0.3542   -0.7505    3.2537 Si  0  0  0  0  0  4  0  0  0  0  0  0
    0.2151   -2.0740    3.4938 H   0  0  0  0  0  0  0  0  0  0  0  0
   -1.6858   -0.9018    2.6310 H   0  0  0  0  0  0  0  0  0  0  0  0
    2.5451    1.1478    3.0876 Si  0  0  0  0  0  4  0  0  0  0  0  0
    2.0420    2.0981    4.0887 H   0  0  0  0  0  0  0  0  0  0  0  0
    3.4165    1.9129    2.1758 H   0  0  0  0  0  0  0  0  0  0  0  0
    3.6829   -0.4563    4.1526 Si  0  0  0  0  0  4  0  0  0  0  0  0
    3.3986   -0.3028    6.3577 Si  0  0  0  0  0  4  0  0  0  0  0  0
   -2.6456    0.9909    5.4871 Si  0  0  0  0  0  4  0  0  0  0  0  0
   -0.5246    0.4487    5.1185 Si  0  0  0  0  0  4  0  0  0  0  0  0
   -0.0218   -0.3365    6.2543 H   0  0  0  0  0  0  0  0  0  0  0  0
    0.2849    1.6839    5.0537 H   0  0  0  0  0  0  0  0  0  0  0  0
    2.6620   -2.2409    7.1882 Si  0  0  0  0  0  4  0  0  0  0  0  0
   -3.0612    1.1174    7.6669 Si  0  0  0  0  0  4  0  0  0  0  0  0
    1.2330   -1.9119    8.8690 Si  0  0  0  0  0  4  0  0  0  0  0  0
   -3.1942   -0.8558    8.6326 Si  0  0  0  0  0  4  0  0  0  0  0  0
    4.6755    0.0302    6.9872 H   0  0  0  0  0  0  0  0  0  0  0  0
    2.4364    0.7902    6.6153 H   0  0  0  0  0  0  0  0  0  0  0  0
    1.9869   -2.9960    6.1170 H   0  0  0  0  0  0  0  0  0  0  0  0
    3.8036   -3.0714    7.6278 H   0  0  0  0  0  0  0  0  0  0  0  0
   -4.6193   -1.1789    8.8747 H   0  0  0  0  0  0  0  0  0  0  0  0
   -2.5626   -0.7699    9.9777 H   0  0  0  0  0  0  0  0  0  0  0  0
   -0.4597   -3.3169    8.6871 Si  0  0  0  0  0  4  0  0  0  0  0  0
   -0.9790   -3.6988   10.0027 H   0  0  0  0  0  0  0  0  0  0  0  0
    0.0043   -4.5457    8.0227 H   0  0  0  0  0  0  0  0  0  0  0  0
   -2.1504   -2.4539    7.5081 Si  0  0  0  0  0  4  0  0  0  0  0  0
   -1.7296   -2.0213    6.1793 H   0  0  0  0  0  0  0  0  0  0  0  0
   -3.1275   -3.5610    7.2985 H   0  0  0  0  0  0  0  0  0  0  0  0
    0.8285   -0.5120    8.9279 H   0  0  0  0  0  0  0  0  0  0  0  0
    1.9529   -2.2042   10.1329 H   0  0  0  0  0  0  0  0  0  0  0  0
   -4.3472    1.8516    7.8286 H   0  0  0  0  0  0  0  0  0  0  0  0
   -2.0324    1.9473    8.2914 H   0  0  0  0  0  0  0  0  0  0  0  0
   -2.8590    2.3512    4.9215 H   0  0  0  0  0  0  0  0  0  0  0  0
   -3.5795    0.0935    4.8018 H   0  0  0  0  0  0  0  0  0  0  0  0
    3.2575   -1.7714    3.6448 H   0  0  0  0  0  0  0  0  0  0  0  0
    5.1101   -0.3141    3.7944 H   0  0  0  0  0  0  0  0  0  0  0  0
  1  2  1  0
  1  5  1  0
  2  3  1  0
  2  4  1  0
  2 11  1  0
  5  6  1  0
  5  7  1  0
  5  8  1  0
  8  9  1  0
  8 36  1  0
  8 37  1  0
  9 14  1  0
  9 18  1  0
  9 19  1  0
 10 11  1  0
 10 15  1  0
 10 34  1  0
 10 35  1  0
 11 12  1  0
 11 13  1  0
 14 16  1  0
 14 20  1  0
 14 21  1  0
 15 17  1  0
 15 32  1  0
 15 33  1  0
 16 24  1  0
 16 30  1  0
 16 31  1  0
 17 22  1  0
 17 23  1  0
 17 27  1  0
 24 25  1  0
 24 26  1  0
 24 27  1  0
 27 28  1  0
 27 29  1  0
M  CHG  1   1   1
M  RAD  1   1   2
M  END
$$$$

     RDKit          3D

 37 37  0  0  0  0  0  0  0  0999 V2000
    0.9751    0.2967    1.9138 S   0  0  0  0  0  2  0  0  0  0  0  0
   -0.2214   -0.9327    3.2238 Si  0  0  0  0  0  4  0  0  0  0  0  0
    0.4697   -2.2096    3.3823 H   0  0  0  0  0  0  0  0  0  0  0  0
   -1.5494   -1.1721    2.6215 H   0  0  0  0  0  0  0  0  0  0  0  0
    2.4919    1.2259    3.0983 Si  0  0  0  0  0  4  0  0  0  0  0  0
    1.9314    2.0751    4.1580 H   0  0  0  0  0  0  0  0  0  0  0  0
    3.2684    2.1117    2.2102 H   0  0  0  0  0  0  0  0  0  0  0  0
    3.7947   -0.3204    4.0540 Si  0  0  0  0  0  4  0  0  0  0  0  0
    3.5534   -0.3047    6.2695 Si  0  0  0  0  0  4  0  0  0  0  0  0
   -2.6021    0.4796    5.5922 Si  0  0  0  0  0  4  0  0  0  0  0  0
   -0.4511    0.1506    5.1522 Si  0  0  0  0  0  4  0  0  0  0  0  0
    0.1481   -0.6423    6.2346 H   0  0  0  0  0  0  0  0  0  0  0  0
    0.2430    1.4556    5.1358 H   0  0  0  0  0  0  0  0  0  0  0  0
    3.0138   -2.3409    7.0119 Si  0  0  0  0  0  4  0  0  0  0  0  0
   -2.9724    0.4577    7.7836 Si  0  0  0  0  0  4  0  0  0  0  0  0
    1.6038   -2.2277    8.7366 Si  0  0  0  0  0  4  0  0  0  0  0  0
   -2.9045   -1.5656    8.6469 Si  0  0  0  0  0  4  0  0  0  0  0  0
    4.8110    0.1102    6.8892 H   0  0  0  0  0  0  0  0  0  0  0  0
    2.5043    0.6824    6.6037 H   0  0  0  0  0  0  0  0  0  0  0  0
    2.3820   -3.0989    5.9166 H   0  0  0  0  0  0  0  0  0  0  0  0
    4.2356   -3.0859    7.3838 H   0  0  0  0  0  0  0  0  0  0  0  0
   -4.2886   -2.0280    8.9009 H   0  0  0  0  0  0  0  0  0  0  0  0
   -2.2495   -1.4909    9.9814 H   0  0  0  0  0  0  0  0  0  0  0  0
    0.0392   -3.7690    8.5159 Si  0  0  0  0  0  4  0  0  0  0  0  0
   -0.4107   -4.2622    9.8201 H   0  0  0  0  0  0  0  0  0  0  0  0
    0.5942   -4.9157    7.7786 H   0  0  0  0  0  0  0  0  0  0  0  0
   -1.7508   -3.0040    7.4189 Si  0  0  0  0  0  4  0  0  0  0  0  0
   -1.4038   -2.4686    6.1063 H   0  0  0  0  0  0  0  0  0  0  0  0
   -2.6303   -4.1829    7.1715 H   0  0  0  0  0  0  0  0  0  0  0  0
    1.0776   -0.8749    8.8773 H   0  0  0  0  0  0  0  0  0  0  0  0
    2.3785   -2.5171    9.9684 H   0  0  0  0  0  0  0  0  0  0  0  0
   -4.3143    1.0636    8.0100 H   0  0  0  0  0  0  0  0  0  0  0  0
   -2.0064    1.3447    8.4296 H   0  0  0  0  0  0  0  0  0  0  0  0
   -2.9502    1.8417    5.1033 H   0  0  0  0  0  0  0  0  0  0  0  0
   -3.4691   -0.4629    4.8800 H   0  0  0  0  0  0  0  0  0  0  0  0
    3.4758   -1.6412    3.4866 H   0  0  0  0  0  0  0  0  0  0  0  0
    5.1941   -0.0319    3.6745 H   0  0  0  0  0  0  0  0  0  0  0  0
  1  2  1  0
  1  5  1  0
  2  3  1  0
  2  4  1  0
  2 11  1  0
  5  6  1  0
  5  7  1  0
  5  8  1  0
  8  9  1  0
  8 36  1  0
  8 37  1  0
  9 14  1  0
  9 18  1  0
  9 19  1  0
 10 11  1  0
 10 15  1  0
 10 34  1  0
 10 35  1  0
 11 12  1  0
 11 13  1  0
 14 16  1  0
 14 20  1  0
 14 21  1  0
 15 17  1  0
 15 32  1  0
 15 33  1  0
 16 24  1  0
 16 30  1  0
 16 31  1  0
 17 22  1  0
 17 23  1  0
 17 27  1  0
 24 25  1  0
 24 26  1  0
 24 27  1  0
 27 28  1  0
 27 29  1  0
M  CHG  1   1   1
M  RAD  1   1   2
M  END
$$$$

     RDKit          3D

 37 37  0  0  0  0  0  0  0  0999 V2000
    0.9751    0.2967    1.9138 S   0  0  0  0  0  2  0  0  0  0  0  0
    3.0223    0.2178    2.5686 Si  0  0  0  0  0  4  0  0  0  0  0  0
    3.8174   -0.7090    1.7495 H   0  0  0  0  0  0  0  0  0  0  0  0
    3.5599    1.5983    2.4288 H   0  0  0  0  0  0  0  0  0  0  0  0
   -0.3763   -0.1003    3.5323 Si  0  0  0  0  0  4  0  0  0  0  0  0
   -1.0414   -1.3996    3.3881 H   0  0  0  0  0  0  0  0  0  0  0  0
    0.4422   -0.1201    4.7784 H   0  0  0  0  0  0  0  0  0  0  0  0
   -1.9050    1.4773    3.7577 Si  0  0  0  0  0  4  0  0  0  0  0  0
   -1.7151    2.5601    5.6851 Si  0  0  0  0  0  4  0  0  0  0  0  0
    5.0332   -0.5824    5.5648 Si  0  0  0  0  0  4  0  0  0  0  0  0
    3.0290   -0.3791    4.6951 Si  0  0  0  0  0  4  0  0  0  0  0  0
    2.2834    0.6551    5.4609 H   0  0  0  0  0  0  0  0  0  0  0  0
    2.2934   -1.6492    4.8531 H   0  0  0  0  0  0  0  0  0  0  0  0
   -2.1988    1.2914    7.4253 Si  0  0  0  0  0  4  0  0  0  0  0  0
    4.8152   -0.5282    7.8102 Si  0  0  0  0  0  4  0  0  0  0  0  0
   -1.2030   -0.6688    7.4041 Si  0  0  0  0  0  4  0  0  0  0  0  0
    3.9183    1.4094    8.4409 Si  0  0  0  0  0  4  0  0  0  0  0  0
   -2.6941    3.6851    5.6566 H   0  0  0  0  0  0  0  0  0  0  0  0
   -0.3903    3.1765    5.7613 H   0  0  0  0  0  0  0  0  0  0  0  0
   -3.6709    1.0553    7.4228 H   0  0  0  0  0  0  0  0  0  0  0  0
   -1.9056    2.0350    8.6498 H   0  0  0  0  0  0  0  0  0  0  0  0
    4.4874    2.4591    7.5488 H   0  0  0  0  0  0  0  0  0  0  0  0
    4.3522    1.7625    9.8140 H   0  0  0  0  0  0  0  0  0  0  0  0
    0.8516   -0.6231    8.2495 Si  0  0  0  0  0  4  0  0  0  0  0  0
    0.8748   -1.1609    9.6403 H   0  0  0  0  0  0  0  0  0  0  0  0
    1.6740   -1.5744    7.4566 H   0  0  0  0  0  0  0  0  0  0  0  0
    1.7118    1.4065    8.2944 Si  0  0  0  0  0  4  0  0  0  0  0  0
    1.1680    2.1162    9.4814 H   0  0  0  0  0  0  0  0  0  0  0  0
    1.3137    2.1346    7.0918 H   0  0  0  0  0  0  0  0  0  0  0  0
   -1.2422   -1.2551    6.0565 H   0  0  0  0  0  0  0  0  0  0  0  0
   -2.0019   -1.5872    8.2678 H   0  0  0  0  0  0  0  0  0  0  0  0
    6.1712   -0.6257    8.3688 H   0  0  0  0  0  0  0  0  0  0  0  0
    3.9927   -1.6705    8.2094 H   0  0  0  0  0  0  0  0  0  0  0  0
    5.6620   -1.8673    5.2160 H   0  0  0  0  0  0  0  0  0  0  0  0
    5.9035    0.4797    5.0931 H   0  0  0  0  0  0  0  0  0  0  0  0
   -3.2779    0.9536    3.5828 H   0  0  0  0  0  0  0  0  0  0  0  0
   -1.7112    2.4682    2.6695 H   0  0  0  0  0  0  0  0  0  0  0  0
  1  2  1  0
  1  5  1  0
  2  3  1  0
  2  4  1  0
  2 11  1  0
  5  6  1  0
  5  7  1  0
  5  8  1  0
  8  9  1  0
  8 36  1  0
  8 37  1  0
  9 14  1  0
  9 18  1  0
  9 19  1  0
 10 11  1  0
 10 15  1  0
 10 34  1  0
 10 35  1  0
 11 12  1  0
 11 13  1  0
 14 16  1  0
 14 20  1  0
 14 21  1  0
 15 17  1  0
 15 32  1  0
 15 33  1  0
 16 24  1  0
 16 30  1  0
 16 31  1  0
 17 22  1  0
 17 23  1  0
 17 27  1  0
 24 25  1  0
 24 26  1  0
 24 27  1  0
 27 28  1  0
 27 29  1  0
M  CHG  1   1   1
M  RAD  1   1   2
M  END
$$$$

     RDKit          3D

 37 37  0  0  0  0  0  0  0  0999 V2000
    0.9751    0.2967    1.9138 S   0  0  0  0  0  2  0  0  0  0  0  0
    0.9623    2.4421    2.1370 Si  0  0  0  0  0  4  0  0  0  0  0  0
    0.0698    2.9681    1.0681 H   0  0  0  0  0  0  0  0  0  0  0  0
    0.3743    2.8202    3.4273 H   0  0  0  0  0  0  0  0  0  0  0  0
   -0.2915   -0.6098    3.4073 Si  0  0  0  0  0  4  0  0  0  0  0  0
   -1.2603    0.3804    3.9219 H   0  0  0  0  0  0  0  0  0  0  0  0
   -0.9584   -1.7959    2.9074 H   0  0  0  0  0  0  0  0  0  0  0  0
    1.0368   -1.2114    5.1276 Si  0  0  0  0  0  4  0  0  0  0  0  0
    2.7099   -2.4536    4.4452 Si  0  0  0  0  0  4  0  0  0  0  0  0
    4.2403    3.1810    3.6579 Si  0  0  0  0  0  4  0  0  0  0  0  0
    2.9730    3.3113    1.8216 Si  0  0  0  0  0  4  0  0  0  0  0  0
    3.5997    2.6169    0.6813 H   0  0  0  0  0  0  0  0  0  0  0  0
    2.8166    4.7201    1.4462 H   0  0  0  0  0  0  0  0  0  0  0  0
    4.7053   -1.5977    4.9125 Si  0  0  0  0  0  4  0  0  0  0  0  0
    2.9925    3.3236    5.4605 Si  0  0  0  0  0  4  0  0  0  0  0  0
    5.0697   -1.3794    7.0703 Si  0  0  0  0  0  4  0  0  0  0  0  0
    3.7585    2.1729    7.1755 Si  0  0  0  0  0  4  0  0  0  0  0  0
    2.6537   -3.8154    4.9709 H   0  0  0  0  0  0  0  0  0  0  0  0
    2.6349   -2.5732    2.9608 H   0  0  0  0  0  0  0  0  0  0  0  0
    4.9411   -0.3160    4.2487 H   0  0  0  0  0  0  0  0  0  0  0  0
    5.7158   -2.5436    4.3683 H   0  0  0  0  0  0  0  0  0  0  0  0
    3.2999    0.7866    7.0784 H   0  0  0  0  0  0  0  0  0  0  0  0
    3.1432    2.7277    8.4149 H   0  0  0  0  0  0  0  0  0  0  0  0
    6.7643    0.0848    7.3397 Si  0  0  0  0  0  4  0  0  0  0  0  0
    7.6667   -0.0440    6.1613 H   0  0  0  0  0  0  0  0  0  0  0  0
    7.5169   -0.2031    8.5496 H   0  0  0  0  0  0  0  0  0  0  0  0
    5.9667    2.1778    7.3171 Si  0  0  0  0  0  4  0  0  0  0  0  0
    6.6004    2.9882    6.2777 H   0  0  0  0  0  0  0  0  0  0  0  0
    6.3520    2.7934    8.6184 H   0  0  0  0  0  0  0  0  0  0  0  0
    5.5675   -2.6708    7.6182 H   0  0  0  0  0  0  0  0  0  0  0  0
    3.9093   -1.0038    7.8461 H   0  0  0  0  0  0  0  0  0  0  0  0
    1.6320    2.8148    5.1300 H   0  0  0  0  0  0  0  0  0  0  0  0
    2.8574    4.7506    5.8368 H   0  0  0  0  0  0  0  0  0  0  0  0
    5.0464    1.9851    3.5671 H   0  0  0  0  0  0  0  0  0  0  0  0
    5.1658    4.3456    3.6213 H   0  0  0  0  0  0  0  0  0  0  0  0
    0.1708   -2.0146    6.0376 H   0  0  0  0  0  0  0  0  0  0  0  0
    1.4131   -0.0005    5.8215 H   0  0  0  0  0  0  0  0  0  0  0  0
  1  2  1  0
  1  5  1  0
  2  3  1  0
  2  4  1  0
  2 11  1  0
  5  6  1  0
  5  7  1  0
  5  8  1  0
  8  9  1  0
  8 36  1  0
  8 37  1  0
  9 14  1  0
  9 18  1  0
  9 19  1  0
 10 11  1  0
 10 15  1  0
 10 34  1  0
 10 35  1  0
 11 12  1  0
 11 13  1  0
 14 16  1  0
 14 20  1  0
 14 21  1  0
 15 17  1  0
 15 32  1  0
 15 33  1  0
 16 24  1  0
 16 30  1  0
 16 31  1  0
 17 22  1  0
 17 23  1  0
 17 27  1  0
 24 25  1  0
 24 26  1  0
 24 27  1  0
 27 28  1  0
 27 29  1  0
M  CHG  1   1   1
M  RAD  1   1   2
M  END
$$$$

     RDKit          3D

 37 37  0  0  0  0  0  0  0  0999 V2000
    0.9751    0.2967    1.9138 S   0  0  0  0  0  2  0  0  0  0  0  0
    2.2798    1.7481    2.7230 Si  0  0  0  0  0  4  0  0  0  0  0  0
    1.6300    3.0610    2.8088 H   0  0  0  0  0  0  0  0  0  0  0  0
    3.4237    1.9178    1.7820 H   0  0  0  0  0  0  0  0  0  0  0  0
   -0.0526   -0.8428    3.3731 Si  0  0  0  0  0  4  0  0  0  0  0  0
   -0.4790   -0.0732    4.5322 H   0  0  0  0  0  0  0  0  0  0  0  0
   -1.2838   -1.3910    2.7452 H   0  0  0  0  0  0  0  0  0  0  0  0
    1.2184   -2.5796    3.9607 Si  0  0  0  0  0  4  0  0  0  0  0  0
    1.0500   -3.0017    6.1486 Si  0  0  0  0  0  4  0  0  0  0  0  0
    1.6332    1.4387    6.3409 Si  0  0  0  0  0  4  0  0  0  0  0  0
    3.1046    1.2000    4.6953 Si  0  0  0  0  0  4  0  0  0  0  0  0
    3.6592   -0.1744    4.6432 H   0  0  0  0  0  0  0  0  0  0  0  0
    4.2511    2.0909    4.9893 H   0  0  0  0  0  0  0  0  0  0  0  0
   -0.8277   -2.1514    7.0000 Si  0  0  0  0  0  4  0  0  0  0  0  0
    2.2551    2.9670    7.8202 Si  0  0  0  0  0  4  0  0  0  0  0  0
   -0.7623   -2.3174    9.2159 Si  0  0  0  0  0  4  0  0  0  0  0  0
    2.5399    2.0562    9.8626 Si  0  0  0  0  0  4  0  0  0  0  0  0
    1.0633   -4.4341    6.4052 H   0  0  0  0  0  0  0  0  0  0  0  0
    2.2019   -2.3648    6.8051 H   0  0  0  0  0  0  0  0  0  0  0  0
   -1.9887   -2.8753    6.5154 H   0  0  0  0  0  0  0  0  0  0  0  0
   -0.9616   -0.7351    6.6402 H   0  0  0  0  0  0  0  0  0  0  0  0
    3.6437    1.0832    9.8335 H   0  0  0  0  0  0  0  0  0  0  0  0
    2.7537    3.1348   10.8135 H   0  0  0  0  0  0  0  0  0  0  0  0
    0.9995   -1.2879   10.0854 Si  0  0  0  0  0  4  0  0  0  0  0  0
    1.2274   -1.8499   11.4450 H   0  0  0  0  0  0  0  0  0  0  0  0
    2.2295   -1.5339    9.3297 H   0  0  0  0  0  0  0  0  0  0  0  0
    0.6717    0.8957   10.3201 Si  0  0  0  0  0  4  0  0  0  0  0  0
    0.2840    1.2489   11.7051 H   0  0  0  0  0  0  0  0  0  0  0  0
   -0.4356    1.3104    9.4363 H   0  0  0  0  0  0  0  0  0  0  0  0
   -0.6417   -3.7644    9.5430 H   0  0  0  0  0  0  0  0  0  0  0  0
   -1.9726   -1.7647    9.8327 H   0  0  0  0  0  0  0  0  0  0  0  0
    1.2048    4.0054    7.9861 H   0  0  0  0  0  0  0  0  0  0  0  0
    3.4888    3.6236    7.3954 H   0  0  0  0  0  0  0  0  0  0  0  0
    0.2955    1.7674    5.8632 H   0  0  0  0  0  0  0  0  0  0  0  0
    1.5520    0.1345    7.0529 H   0  0  0  0  0  0  0  0  0  0  0  0
    2.6198   -2.3124    3.5721 H   0  0  0  0  0  0  0  0  0  0  0  0
    0.8108   -3.7875    3.2096 H   0  0  0  0  0  0  0  0  0  0  0  0
  1  2  1  0
  1  5  1  0
  2  3  1  0
  2  4  1  0
  2 11  1  0
  5  6  1  0
  5  7  1  0
  5  8  1  0
  8  9  1  0
  8 36  1  0
  8 37  1  0
  9 14  1  0
  9 18  1  0
  9 19  1  0
 10 11  1  0
 10 15  1  0
 10 34  1  0
 10 35  1  0
 11 12  1  0
 11 13  1  0
 14 16  1  0
 14 20  1  0
 14 21  1  0
 15 17  1  0
 15 32  1  0
 15 33  1  0
 16 24  1  0
 16 30  1  0
 16 31  1  0
 17 22  1  0
 17 23  1  0
 17 27  1  0
 24 25  1  0
 24 26  1  0
 24 27  1  0
 27 28  1  0
 27 29  1  0
M  CHG  1   1   1
M  RAD  1   1   2
M  END
$$$$

     RDKit          3D

 37 37  0  0  0  0  0  0  0  0999 V2000
    0.9751    0.2967    1.9138 S   0  0  0  0  0  2  0  0  0  0  0  0
   -0.1002    2.0878    2.4490 Si  0  0  0  0  0  4  0  0  0  0  0  0
   -1.4984    1.6978    2.6619 H   0  0  0  0  0  0  0  0  0  0  0  0
    0.0051    3.1038    1.4150 H   0  0  0  0  0  0  0  0  0  0  0  0
    1.0816   -0.9332    3.6702 Si  0  0  0  0  0  4  0  0  0  0  0  0
    1.3374   -0.0666    4.8081 H   0  0  0  0  0  0  0  0  0  0  0  0
    2.2001   -1.8907    3.5799 H   0  0  0  0  0  0  0  0  0  0  0  0
   -0.7907   -2.0599    4.0152 Si  0  0  0  0  0  4  0  0  0  0  0  0
   -2.0301   -1.2346    5.6282 Si  0  0  0  0  0  4  0  0  0  0  0  0
    2.8742    3.3674    4.1892 Si  0  0  0  0  0  4  0  0  0  0  0  0
    0.6820    2.8752    4.3916 Si  0  0  0  0  0  4  0  0  0  0  0  0
    0.6069    1.7760    5.3655 H   0  0  0  0  0  0  0  0  0  0  0  0
   -0.0881    4.0371    4.7968 H   0  0  0  0  0  0  0  0  0  0  0  0
   -0.8858   -0.4217    7.3224 Si  0  0  0  0  0  4  0  0  0  0  0  0
    3.7129    3.8187    6.2015 Si  0  0  0  0  0  4  0  0  0  0  0  0
    1.1439   -1.2649    7.5078 Si  0  0  0  0  0  4  0  0  0  0  0  0
    2.1442    3.9792    7.7528 Si  0  0  0  0  0  4  0  0  0  0  0  0
   -2.9207   -2.3126    6.1448 H   0  0  0  0  0  0  0  0  0  0  0  0
   -2.9001   -0.1687    5.0757 H   0  0  0  0  0  0  0  0  0  0  0  0
   -0.7665    1.0587    7.1991 H   0  0  0  0  0  0  0  0  0  0  0  0
   -1.6103   -0.6550    8.5879 H   0  0  0  0  0  0  0  0  0  0  0  0
    0.8961    4.3956    7.1160 H   0  0  0  0  0  0  0  0  0  0  0  0
    2.5516    5.0377    8.7161 H   0  0  0  0  0  0  0  0  0  0  0  0
    2.6952    0.3319    7.7891 Si  0  0  0  0  0  4  0  0  0  0  0  0
    3.9148   -0.2051    8.3932 H   0  0  0  0  0  0  0  0  0  0  0  0
    3.0611    0.7967    6.4226 H   0  0  0  0  0  0  0  0  0  0  0  0
    1.8818    2.0756    8.8878 Si  0  0  0  0  0  4  0  0  0  0  0  0
    2.4324    2.1838   10.2573 H   0  0  0  0  0  0  0  0  0  0  0  0
    0.4248    1.8637    9.0547 H   0  0  0  0  0  0  0  0  0  0  0  0
    1.1998   -2.2175    8.6392 H   0  0  0  0  0  0  0  0  0  0  0  0
    1.4615   -2.0399    6.2987 H   0  0  0  0  0  0  0  0  0  0  0  0
    4.7515    2.8440    6.5753 H   0  0  0  0  0  0  0  0  0  0  0  0
    4.4114    5.1312    6.0943 H   0  0  0  0  0  0  0  0  0  0  0  0
    3.0321    4.4579    3.2483 H   0  0  0  0  0  0  0  0  0  0  0  0
    3.5158    2.1273    3.6781 H   0  0  0  0  0  0  0  0  0  0  0  0
   -0.5240   -3.4980    4.2638 H   0  0  0  0  0  0  0  0  0  0  0  0
   -1.5770   -2.0229    2.7495 H   0  0  0  0  0  0  0  0  0  0  0  0
  1  2  1  0
  1  5  1  0
  2  3  1  0
  2  4  1  0
  2 11  1  0
  5  6  1  0
  5  7  1  0
  5  8  1  0
  8  9  1  0
  8 36  1  0
  8 37  1  0
  9 14  1  0
  9 18  1  0
  9 19  1  0
 10 11  1  0
 10 15  1  0
 10 34  1  0
 10 35  1  0
 11 12  1  0
 11 13  1  0
 14 16  1  0
 14 20  1  0
 14 21  1  0
 15 17  1  0
 15 32  1  0
 15 33  1  0
 16 24  1  0
 16 30  1  0
 16 31  1  0
 17 22  1  0
 17 23  1  0
 17 27  1  0
 24 25  1  0
 24 26  1  0
 24 27  1  0
 27 28  1  0
 27 29  1  0
M  CHG  1   1   1
M  RAD  1   1   2
M  END
$$$$

     RDKit          3D

 37 37  0  0  0  0  0  0  0  0999 V2000
    0.9751    0.2967    1.9138 S   0  0  0  0  0  2  0  0  0  0  0  0
    2.7972    1.3156    1.3714 Si  0  0  0  0  0  4  0  0  0  0  0  0
    2.7119    1.5737   -0.0921 H   0  0  0  0  0  0  0  0  0  0  0  0
    2.8769    2.6173    2.0441 H   0  0  0  0  0  0  0  0  0  0  0  0
   -0.3809    1.6699    2.8792 Si  0  0  0  0  0  4  0  0  0  0  0  0
   -0.0269    3.0623    2.5332 H   0  0  0  0  0  0  0  0  0  0  0  0
   -1.7656    1.3792    2.5632 H   0  0  0  0  0  0  0  0  0  0  0  0
   -0.0934    1.4333    5.1034 Si  0  0  0  0  0  4  0  0  0  0  0  0
   -0.2974   -0.6628    5.7141 Si  0  0  0  0  0  4  0  0  0  0  0  0
    5.2406    0.1200    3.8623 Si  0  0  0  0  0  4  0  0  0  0  0  0
    4.5798    0.0536    1.7283 Si  0  0  0  0  0  4  0  0  0  0  0  0
    4.2610   -1.3223    1.3033 H   0  0  0  0  0  0  0  0  0  0  0  0
    5.6695    0.5361    0.8740 H   0  0  0  0  0  0  0  0  0  0  0  0
    1.5087   -1.4803    6.7151 Si  0  0  0  0  0  4  0  0  0  0  0  0
    4.7998    2.0856    4.7390 Si  0  0  0  0  0  4  0  0  0  0  0  0
    2.0046   -0.4416    8.5892 Si  0  0  0  0  0  4  0  0  0  0  0  0
    4.3246    2.0233    6.8890 Si  0  0  0  0  0  4  0  0  0  0  0  0
   -1.4515   -0.8891    6.5806 H   0  0  0  0  0  0  0  0  0  0  0  0
   -0.5196   -1.4909    4.4942 H   0  0  0  0  0  0  0  0  0  0  0  0
    2.6825   -1.4935    5.8427 H   0  0  0  0  0  0  0  0  0  0  0  0
    1.2127   -2.9010    7.0407 H   0  0  0  0  0  0  0  0  0  0  0  0
    2.9028    1.7266    7.0672 H   0  0  0  0  0  0  0  0  0  0  0  0
    4.5367    3.3890    7.4480 H   0  0  0  0  0  0  0  0  0  0  0  0
    4.1558   -0.9033    9.0862 Si  0  0  0  0  0  4  0  0  0  0  0  0
    4.4596   -2.2652    8.5643 H   0  0  0  0  0  0  0  0  0  0  0  0
    4.3764   -0.8837   10.5229 H   0  0  0  0  0  0  0  0  0  0  0  0
    5.5049    0.5195    8.0033 Si  0  0  0  0  0  4  0  0  0  0  0  0
    6.4695   -0.1844    7.1590 H   0  0  0  0  0  0  0  0  0  0  0  0
    6.3013    1.2266    9.0457 H   0  0  0  0  0  0  0  0  0  0  0  0
    1.2044   -1.0241    9.7010 H   0  0  0  0  0  0  0  0  0  0  0  0
    1.7511    0.9815    8.5788 H   0  0  0  0  0  0  0  0  0  0  0  0
    3.6311    2.6673    4.0215 H   0  0  0  0  0  0  0  0  0  0  0  0
    5.9574    2.9821    4.5091 H   0  0  0  0  0  0  0  0  0  0  0  0
    4.6494   -1.0026    4.5540 H   0  0  0  0  0  0  0  0  0  0  0  0
    6.7144   -0.0848    3.8595 H   0  0  0  0  0  0  0  0  0  0  0  0
   -1.1818    2.2342    5.7333 H   0  0  0  0  0  0  0  0  0  0  0  0
    1.1691    2.0516    5.4398 H   0  0  0  0  0  0  0  0  0  0  0  0
  1  2  1  0
  1  5  1  0
  2  3  1  0
  2  4  1  0
  2 11  1  0
  5  6  1  0
  5  7  1  0
  5  8  1  0
  8  9  1  0
  8 36  1  0
  8 37  1  0
  9 14  1  0
  9 18  1  0
  9 19  1  0
 10 11  1  0
 10 15  1  0
 10 34  1  0
 10 35  1  0
 11 12  1  0
 11 13  1  0
 14 16  1  0
 14 20  1  0
 14 21  1  0
 15 17  1  0
 15 32  1  0
 15 33  1  0
 16 24  1  0
 16 30  1  0
 16 31  1  0
 17 22  1  0
 17 23  1  0
 17 27  1  0
 24 25  1  0
 24 26  1  0
 24 27  1  0
 27 28  1  0
 27 29  1  0
M  CHG  1   1   1
M  RAD  1   1   2
M  END
$$$$

     RDKit          3D

 37 37  0  0  0  0  0  0  0  0999 V2000
    0.9751    0.2967    1.9138 S   0  0  0  0  0  2  0  0  0  0  0  0
    2.1042    1.6408    3.1302 Si  0  0  0  0  0  4  0  0  0  0  0  0
    3.5344    1.4085    3.0198 H   0  0  0  0  0  0  0  0  0  0  0  0
    1.8167    3.0121    2.6642 H   0  0  0  0  0  0  0  0  0  0  0  0
    1.4766   -1.7436    2.2919 Si  0  0  0  0  0  4  0  0  0  0  0  0
    2.9139   -1.9576    2.4248 H   0  0  0  0  0  0  0  0  0  0  0  0
    0.9752   -2.5666    1.1689 H   0  0  0  0  0  0  0  0  0  0  0  0
    0.3699   -2.4152    4.1246 Si  0  0  0  0  0  4  0  0  0  0  0  0
    1.5282   -3.9988    5.2050 Si  0  0  0  0  0  4  0  0  0  0  0  0
   -0.6397    1.8864    5.5830 Si  0  0  0  0  0  4  0  0  0  0  0  0
    1.5274    1.4991    5.2729 Si  0  0  0  0  0  4  0  0  0  0  0  0
    2.2753    2.5409    6.0054 H   0  0  0  0  0  0  0  0  0  0  0  0
    1.9094    0.2122    5.8544 H   0  0  0  0  0  0  0  0  0  0  0  0
    2.0383   -3.2352    7.2613 Si  0  0  0  0  0  4  0  0  0  0  0  0
   -1.0197    2.0391    7.7845 Si  0  0  0  0  0  4  0  0  0  0  0  0
    0.1065   -2.7483    8.2586 Si  0  0  0  0  0  4  0  0  0  0  0  0
    0.9026    2.2715    8.8788 Si  0  0  0  0  0  4  0  0  0  0  0  0
    0.6242   -5.1488    5.4038 H   0  0  0  0  0  0  0  0  0  0  0  0
    2.7197   -4.3366    4.4492 H   0  0  0  0  0  0  0  0  0  0  0  0
    2.8825   -2.0384    7.0853 H   0  0  0  0  0  0  0  0  0  0  0  0
    2.7888   -4.2656    7.9557 H   0  0  0  0  0  0  0  0  0  0  0  0
    1.8174    3.0451    8.0022 H   0  0  0  0  0  0  0  0  0  0  0  0
    0.6273    3.0225   10.1224 H   0  0  0  0  0  0  0  0  0  0  0  0
    0.3376   -1.2393    9.8557 Si  0  0  0  0  0  4  0  0  0  0  0  0
    0.6864   -1.9449   11.1089 H   0  0  0  0  0  0  0  0  0  0  0  0
   -0.9701   -0.5867   10.0925 H   0  0  0  0  0  0  0  0  0  0  0  0
    1.8382    0.3173    9.3562 Si  0  0  0  0  0  4  0  0  0  0  0  0
    2.6913    0.5138   10.5573 H   0  0  0  0  0  0  0  0  0  0  0  0
    2.7543   -0.1380    8.2874 H   0  0  0  0  0  0  0  0  0  0  0  0
   -0.4242   -3.9988    8.8307 H   0  0  0  0  0  0  0  0  0  0  0  0
   -0.8529   -2.2845    7.2393 H   0  0  0  0  0  0  0  0  0  0  0  0
   -1.8269    3.2483    8.0212 H   0  0  0  0  0  0  0  0  0  0  0  0
   -1.7876    0.8992    8.2837 H   0  0  0  0  0  0  0  0  0  0  0  0
   -1.0141    3.1185    4.9069 H   0  0  0  0  0  0  0  0  0  0  0  0
   -1.3951    0.7254    5.0679 H   0  0  0  0  0  0  0  0  0  0  0  0
    0.1938   -1.2489    4.9776 H   0  0  0  0  0  0  0  0  0  0  0  0
   -0.9810   -2.8978    3.7614 H   0  0  0  0  0  0  0  0  0  0  0  0
  1  2  1  0
  1  5  1  0
  2  3  1  0
  2  4  1  0
  2 11  1  0
  5  6  1  0
  5  7  1  0
  5  8  1  0
  8  9  1  0
  8 36  1  0
  8 37  1  0
  9 14  1  0
  9 18  1  0
  9 19  1  0
 10 11  1  0
 10 15  1  0
 10 34  1  0
 10 35  1  0
 11 12  1  0
 11 13  1  0
 14 16  1  0
 14 20  1  0
 14 21  1  0
 15 17  1  0
 15 32  1  0
 15 33  1  0
 16 24  1  0
 16 30  1  0
 16 31  1  0
 17 22  1  0
 17 23  1  0
 17 27  1  0
 24 25  1  0
 24 26  1  0
 24 27  1  0
 27 28  1  0
 27 29  1  0
M  CHG  1   1   1
M  RAD  1   1   2
M  END
$$$$

     RDKit          3D

 37 37  0  0  0  0  0  0  0  0999 V2000
    0.9751    0.2967    1.9138 S   0  0  0  0  0  2  0  0  0  0  0  0
    2.7927    1.3305    2.4175 Si  0  0  0  0  0  4  0  0  0  0  0  0
    3.7152    1.3921    1.2741 H   0  0  0  0  0  0  0  0  0  0  0  0
    2.3942    2.7081    2.8150 H   0  0  0  0  0  0  0  0  0  0  0  0
    0.5824   -1.3032    3.2884 Si  0  0  0  0  0  4  0  0  0  0  0  0
    0.7589   -2.6196    2.6661 H   0  0  0  0  0  0  0  0  0  0  0  0
    1.5680   -1.1653    4.3987 H   0  0  0  0  0  0  0  0  0  0  0  0
   -1.4401   -1.1800    4.1665 Si  0  0  0  0  0  4  0  0  0  0  0  0
   -1.3837   -0.8324    6.3573 Si  0  0  0  0  0  4  0  0  0  0  0  0
    5.6212    1.1429    4.7893 Si  0  0  0  0  0  4  0  0  0  0  0  0
    3.7089    0.2883    4.1357 Si  0  0  0  0  0  4  0  0  0  0  0  0
    2.7499    0.3510    5.2708 H   0  0  0  0  0  0  0  0  0  0  0  0
    3.8955   -1.1382    3.8048 H   0  0  0  0  0  0  0  0  0  0  0  0
   -0.5745   -2.5569    7.4722 Si  0  0  0  0  0  4  0  0  0  0  0  0
    6.0265    0.3980    6.8804 Si  0  0  0  0  0  4  0  0  0  0  0  0
    1.3037   -3.3496    6.6484 Si  0  0  0  0  0  4  0  0  0  0  0  0
    4.4027    1.0602    8.2520 Si  0  0  0  0  0  4  0  0  0  0  0  0
   -2.7904   -0.6205    6.8060 H   0  0  0  0  0  0  0  0  0  0  0  0
   -0.6783    0.4209    6.6268 H   0  0  0  0  0  0  0  0  0  0  0  0
   -1.5897   -3.6479    7.4250 H   0  0  0  0  0  0  0  0  0  0  0  0
   -0.4356   -2.1878    8.8802 H   0  0  0  0  0  0  0  0  0  0  0  0
    4.0127    2.4347    7.8272 H   0  0  0  0  0  0  0  0  0  0  0  0
    4.9121    1.1913    9.6383 H   0  0  0  0  0  0  0  0  0  0  0  0
    3.1081   -2.2758    7.3759 Si  0  0  0  0  0  4  0  0  0  0  0  0
    3.8052   -3.0526    8.4411 H   0  0  0  0  0  0  0  0  0  0  0  0
    4.0729   -2.2226    6.2462 H   0  0  0  0  0  0  0  0  0  0  0  0
    2.6443   -0.2792    8.1882 Si  0  0  0  0  0  4  0  0  0  0  0  0
    2.1396   -0.4471    9.5759 H   0  0  0  0  0  0  0  0  0  0  0  0
    1.5980    0.3469    7.3831 H   0  0  0  0  0  0  0  0  0  0  0  0
    1.2407   -3.4104    5.1808 H   0  0  0  0  0  0  0  0  0  0  0  0
    1.4327   -4.7643    7.1063 H   0  0  0  0  0  0  0  0  0  0  0  0
    7.2897    1.0140    7.3110 H   0  0  0  0  0  0  0  0  0  0  0  0
    6.1383   -1.0598    6.8242 H   0  0  0  0  0  0  0  0  0  0  0  0
    6.7433    0.7051    3.9424 H   0  0  0  0  0  0  0  0  0  0  0  0
    5.5725    2.5934    4.7457 H   0  0  0  0  0  0  0  0  0  0  0  0
   -2.2619   -2.3677    3.8444 H   0  0  0  0  0  0  0  0  0  0  0  0
   -2.1424   -0.0263    3.5506 H   0  0  0  0  0  0  0  0  0  0  0  0
  1  2  1  0
  1  5  1  0
  2  3  1  0
  2  4  1  0
  2 11  1  0
  5  6  1  0
  5  7  1  0
  5  8  1  0
  8  9  1  0
  8 36  1  0
  8 37  1  0
  9 14  1  0
  9 18  1  0
  9 19  1  0
 10 11  1  0
 10 15  1  0
 10 34  1  0
 10 35  1  0
 11 12  1  0
 11 13  1  0
 14 16  1  0
 14 20  1  0
 14 21  1  0
 15 17  1  0
 15 32  1  0
 15 33  1  0
 16 24  1  0
 16 30  1  0
 16 31  1  0
 17 22  1  0
 17 23  1  0
 17 27  1  0
 24 25  1  0
 24 26  1  0
 24 27  1  0
 27 28  1  0
 27 29  1  0
M  CHG  1   1   1
M  RAD  1   1   2
M  END
$$$$

     RDKit          3D

 37 37  0  0  0  0  0  0  0  0999 V2000
    0.9751    0.2967    1.9138 S   0  0  0  0  0  2  0  0  0  0  0  0
   -0.2647    1.3189    3.2773 Si  0  0  0  0  0  4  0  0  0  0  0  0
    0.5213    2.4006    3.9233 H   0  0  0  0  0  0  0  0  0  0  0  0
   -1.3381    1.9926    2.5265 H   0  0  0  0  0  0  0  0  0  0  0  0
    2.4637   -0.9070    2.7187 Si  0  0  0  0  0  4  0  0  0  0  0  0
    2.1948   -2.3358    2.3884 H   0  0  0  0  0  0  0  0  0  0  0  0
    3.7671   -0.6043    2.0605 H   0  0  0  0  0  0  0  0  0  0  0  0
    2.7582   -0.7606    4.8996 Si  0  0  0  0  0  4  0  0  0  0  0  0
    4.0795    0.9469    5.4679 Si  0  0  0  0  0  4  0  0  0  0  0  0
   -3.4114    0.4704    4.9946 Si  0  0  0  0  0  4  0  0  0  0  0  0
   -1.2253   -0.0134    4.7690 Si  0  0  0  0  0  4  0  0  0  0  0  0
   -0.6258    0.2773    6.0808 H   0  0  0  0  0  0  0  0  0  0  0  0
   -1.0347   -1.4173    4.4010 H   0  0  0  0  0  0  0  0  0  0  0  0
    2.9758    2.4829    6.6432 Si  0  0  0  0  0  4  0  0  0  0  0  0
   -3.5826    2.2058    6.3948 Si  0  0  0  0  0  4  0  0  0  0  0  0
    2.6401    1.8669    8.7374 Si  0  0  0  0  0  4  0  0  0  0  0  0
   -1.5667    2.8974    7.0688 Si  0  0  0  0  0  4  0  0  0  0  0  0
    5.2678    0.5237    6.1822 H   0  0  0  0  0  0  0  0  0  0  0  0
    4.5306    1.5809    4.2005 H   0  0  0  0  0  0  0  0  0  0  0  0
    1.7622    2.8270    5.9328 H   0  0  0  0  0  0  0  0  0  0  0  0
    3.8293    3.7062    6.6623 H   0  0  0  0  0  0  0  0  0  0  0  0
   -1.5549    4.3739    7.0695 H   0  0  0  0  0  0  0  0  0  0  0  0
   -0.6042    2.4394    6.0430 H   0  0  0  0  0  0  0  0  0  0  0  0
    0.7374    0.7958    9.0447 Si  0  0  0  0  0  4  0  0  0  0  0  0
    0.8026    0.1279   10.3767 H   0  0  0  0  0  0  0  0  0  0  0  0
    0.5927   -0.3051    8.0646 H   0  0  0  0  0  0  0  0  0  0  0  0
   -1.0266    2.1225    9.0533 Si  0  0  0  0  0  4  0  0  0  0  0  0
   -0.7931    3.2231    9.9771 H   0  0  0  0  0  0  0  0  0  0  0  0
   -2.1777    1.3471    9.5939 H   0  0  0  0  0  0  0  0  0  0  0  0
    3.7515    0.9645    9.1389 H   0  0  0  0  0  0  0  0  0  0  0  0
    2.6969    3.0417    9.6132 H   0  0  0  0  0  0  0  0  0  0  0  0
   -4.2319    3.2996    5.6483 H   0  0  0  0  0  0  0  0  0  0  0  0
   -4.4485    1.8875    7.5360 H   0  0  0  0  0  0  0  0  0  0  0  0
   -4.0163    0.7519    3.6946 H   0  0  0  0  0  0  0  0  0  0  0  0
   -4.0402   -0.6940    5.6596 H   0  0  0  0  0  0  0  0  0  0  0  0
    1.5036   -0.7417    5.6499 H   0  0  0  0  0  0  0  0  0  0  0  0
    3.4698   -2.0020    5.3279 H   0  0  0  0  0  0  0  0  0  0  0  0
  1  2  1  0
  1  5  1  0
  2  3  1  0
  2  4  1  0
  2 11  1  0
  5  6  1  0
  5  7  1  0
  5  8  1  0
  8  9  1  0
  8 36  1  0
  8 37  1  0
  9 14  1  0
  9 18  1  0
  9 19  1  0
 10 11  1  0
 10 15  1  0
 10 34  1  0
 10 35  1  0
 11 12  1  0
 11 13  1  0
 14 16  1  0
 14 20  1  0
 14 21  1  0
 15 17  1  0
 15 32  1  0
 15 33  1  0
 16 24  1  0
 16 30  1  0
 16 31  1  0
 17 22  1  0
 17 23  1  0
 17 27  1  0
 24 25  1  0
 24 26  1  0
 24 27  1  0
 27 28  1  0
 27 29  1  0
M  CHG  1   1   1
M  RAD  1   1   2
M  END
$$$$

     RDKit          3D

 37 37  0  0  0  0  0  0  0  0999 V2000
    0.9751    0.2967    1.9138 S   0  0  0  0  0  2  0  0  0  0  0  0
    3.0361    0.5386    2.4791 Si  0  0  0  0  0  4  0  0  0  0  0  0
    3.9395   -0.1329    1.5331 H   0  0  0  0  0  0  0  0  0  0  0  0
    3.3025    2.0027    2.4736 H   0  0  0  0  0  0  0  0  0  0  0  0
   -0.1855   -0.5112    3.5274 Si  0  0  0  0  0  4  0  0  0  0  0  0
   -0.6082   -1.8909    3.2647 H   0  0  0  0  0  0  0  0  0  0  0  0
    0.6927   -0.5035    4.7323 H   0  0  0  0  0  0  0  0  0  0  0  0
   -1.9622    0.7185    3.9833 Si  0  0  0  0  0  4  0  0  0  0  0  0
   -1.8640    1.6150    6.0107 Si  0  0  0  0  0  4  0  0  0  0  0  0
    5.3280   -0.1699    5.2910 Si  0  0  0  0  0  4  0  0  0  0  0  0
    3.2741   -0.2603    4.5244 Si  0  0  0  0  0  4  0  0  0  0  0  0
    2.3966    0.5311    5.4276 H   0  0  0  0  0  0  0  0  0  0  0  0
    2.7941   -1.6557    4.5676 H   0  0  0  0  0  0  0  0  0  0  0  0
   -2.0063    0.1069    7.6160 Si  0  0  0  0  0  4  0  0  0  0  0  0
    5.2328   -0.3875    7.5350 Si  0  0  0  0  0  4  0  0  0  0  0  0
   -0.6708   -1.6179    7.3402 Si  0  0  0  0  0  4  0  0  0  0  0  0
    4.0334    1.2715    8.4100 Si  0  0  0  0  0  4  0  0  0  0  0  0
   -3.0328    2.5322    6.1437 H   0  0  0  0  0  0  0  0  0  0  0  0
   -0.6726    2.4591    6.1055 H   0  0  0  0  0  0  0  0  0  0  0  0
   -3.4078   -0.4010    7.6421 H   0  0  0  0  0  0  0  0  0  0  0  0
   -1.7848    0.7634    8.9037 H   0  0  0  0  0  0  0  0  0  0  0  0
    4.3482    2.4953    7.6194 H   0  0  0  0  0  0  0  0  0  0  0  0
    4.4731    1.5580    9.7967 H   0  0  0  0  0  0  0  0  0  0  0  0
    1.3857   -1.2723    8.1083 Si  0  0  0  0  0  4  0  0  0  0  0  0
    1.5867   -1.9353    9.4289 H   0  0  0  0  0  0  0  0  0  0  0  0
    2.3218   -1.9654    7.1847 H   0  0  0  0  0  0  0  0  0  0  0  0
    1.8601    0.8677    8.3463 Si  0  0  0  0  0  4  0  0  0  0  0  0
    1.2643    1.3372    9.6242 H   0  0  0  0  0  0  0  0  0  0  0  0
    1.2670    1.6267    7.2477 H   0  0  0  0  0  0  0  0  0  0  0  0
   -0.6789   -2.0603    5.9381 H   0  0  0  0  0  0  0  0  0  0  0  0
   -1.2368   -2.7538    8.1257 H   0  0  0  0  0  0  0  0  0  0  0  0
    6.6134   -0.2841    8.0285 H   0  0  0  0  0  0  0  0  0  0  0  0
    4.6580   -1.6991    7.8353 H   0  0  0  0  0  0  0  0  0  0  0  0
    6.1608   -1.2707    4.7785 H   0  0  0  0  0  0  0  0  0  0  0  0
    5.9602    1.0798    4.9081 H   0  0  0  0  0  0  0  0  0  0  0  0
   -3.2235   -0.0340    3.8026 H   0  0  0  0  0  0  0  0  0  0  0  0
   -2.0161    1.8341    3.0054 H   0  0  0  0  0  0  0  0  0  0  0  0
  1  2  1  0
  1  5  1  0
  2  3  1  0
  2  4  1  0
  2 11  1  0
  5  6  1  0
  5  7  1  0
  5  8  1  0
  8  9  1  0
  8 36  1  0
  8 37  1  0
  9 14  1  0
  9 18  1  0
  9 19  1  0
 10 11  1  0
 10 15  1  0
 10 34  1  0
 10 35  1  0
 11 12  1  0
 11 13  1  0
 14 16  1  0
 14 20  1  0
 14 21  1  0
 15 17  1  0
 15 32  1  0
 15 33  1  0
 16 24  1  0
 16 30  1  0
 16 31  1  0
 17 22  1  0
 17 23  1  0
 17 27  1  0
 24 25  1  0
 24 26  1  0
 24 27  1  0
 27 28  1  0
 27 29  1  0
M  CHG  1   1   1
M  RAD  1   1   2
M  END
$$$$
