
     RDKit          3D

 37 37  0  0  0  0  0  0  0  0999 V2000
    0.0376   -0.3284   -5.3275 S   0  0  0  0  0  2  0  0  0  0  0  0
   -1.2564   -1.5318   -6.5333 Si  0  0  0  0  0  4  0  0  0  0  0  0
   -2.6211   -1.5946   -5.9944 H   0  0  0  0  0  0  0  0  0  0  0  0
   -0.7270   -2.9106   -6.6269 H   0  0  0  0  0  0  0  0  0  0  0  0
    2.0886   -0.9091   -5.6710 Si  0  0  0  0  0  4  0  0  0  0  0  0
    2.0889   -2.2963   -6.1179 H   0  0  0  0  0  0  0  0  0  0  0  0
    2.7766   -0.7886   -4.3641 H   0  0  0  0  0  0  0  0  0  0  0  0
    3.0422    0.4711   -7.1244 Si  0  0  0  0  0  4  0  0  0  0  0  0
    4.3642   -0.6398   -8.5582 Si  0  0  0  0  0  4  0  0  0  0  0  0
   -1.2470   -2.2187  -10.0811 Si  0  0  0  0  0  4  0  0  0  0  0  0
   -1.3788   -0.5820   -8.5621 Si  0  0  0  0  0  4  0  0  0  0  0  0
   -2.6385    0.1163   -8.7617 H   0  0  0  0  0  0  0  0  0  0  0  0
   -0.2275    0.3169   -8.7851 H   0  0  0  0  0  0  0  0  0  0  0  0
    3.1780   -1.0190  -10.4372 Si  0  0  0  0  0  4  0  0  0  0  0  0
   -0.5355   -1.3576  -12.0296 Si  0  0  0  0  0  4  0  0  0  0  0  0
    4.3742   -2.1698  -11.9021 Si  0  0  0  0  0  4  0  0  0  0  0  0
    0.6073   -2.9956  -13.0778 Si  0  0  0  0  0  4  0  0  0  0  0  0
    4.7349   -1.9229   -7.9350 H   0  0  0  0  0  0  0  0  0  0  0  0
    5.5240    0.1996   -8.8240 H   0  0  0  0  0  0  0  0  0  0  0  0
    2.0350   -1.8763  -10.0246 H   0  0  0  0  0  0  0  0  0  0  0  0
    2.7456    0.2753  -10.9345 H   0  0  0  0  0  0  0  0  0  0  0  0
    1.3019   -3.8483  -12.1291 H   0  0  0  0  0  0  0  0  0  0  0  0
   -0.4334   -3.8393  -13.7345 H   0  0  0  0  0  0  0  0  0  0  0  0
    3.9104   -1.6040  -13.9955 Si  0  0  0  0  0  4  0  0  0  0  0  0
    4.1730   -0.1579  -14.1417 H   0  0  0  0  0  0  0  0  0  0  0  0
    4.9084   -2.2811  -14.8696 H   0  0  0  0  0  0  0  0  0  0  0  0
    1.8946   -2.1456  -14.6427 Si  0  0  0  0  0  4  0  0  0  0  0  0
    1.9367   -3.0983  -15.7891 H   0  0  0  0  0  0  0  0  0  0  0  0
    1.2213   -0.9298  -15.1860 H   0  0  0  0  0  0  0  0  0  0  0  0
    4.2356   -3.6159  -11.6802 H   0  0  0  0  0  0  0  0  0  0  0  0
    5.8052   -1.8512  -11.6656 H   0  0  0  0  0  0  0  0  0  0  0  0
   -1.7152   -1.0153  -12.8348 H   0  0  0  0  0  0  0  0  0  0  0  0
    0.2865   -0.1810  -11.8361 H   0  0  0  0  0  0  0  0  0  0  0  0
   -2.5010   -2.9352  -10.2339 H   0  0  0  0  0  0  0  0  0  0  0  0
   -0.1900   -3.1453   -9.6203 H   0  0  0  0  0  0  0  0  0  0  0  0
    1.9820    1.1514   -7.8884 H   0  0  0  0  0  0  0  0  0  0  0  0
    3.7968    1.5047   -6.3977 H   0  0  0  0  0  0  0  0  0  0  0  0
  1  2  1  0
  1  5  1  0
  2  3  1  0
  2  4  1  0
  2 11  1  0
  5  6  1  0
  5  7  1  0
  5  8  1  0
  8  9  1  0
  8 36  1  0
  8 37  1  0
  9 14  1  0
  9 18  1  0
  9 19  1  0
 10 11  1  0
 10 15  1  0
 10 34  1  0
 10 35  1  0
 11 12  1  0
 11 13  1  0
 14 16  1  0
 14 20  1  0
 14 21  1  0
 15 17  1  0
 15 32  1  0
 15 33  1  0
 16 24  1  0
 16 30  1  0
 16 31  1  0
 17 22  1  0
 17 23  1  0
 17 27  1  0
 24 25  1  0
 24 26  1  0
 24 27  1  0
 27 28  1  0
 27 29  1  0
M  CHG  1   1   1
M  RAD  1   1   2
M  END
$$$$

     RDKit          3D

 37 37  0  0  0  0  0  0  0  0999 V2000
    0.0376   -0.3284   -5.3275 S   0  0  0  0  0  2  0  0  0  0  0  0
    1.0636   -1.7717   -6.5278 Si  0  0  0  0  0  4  0  0  0  0  0  0
    1.0222   -3.1164   -5.9390 H   0  0  0  0  0  0  0  0  0  0  0  0
    2.4805   -1.3784   -6.6953 H   0  0  0  0  0  0  0  0  0  0  0  0
    0.7913    1.6453   -5.7729 Si  0  0  0  0  0  4  0  0  0  0  0  0
    2.1524    1.4990   -6.2729 H   0  0  0  0  0  0  0  0  0  0  0  0
    0.7906    2.3871   -4.4901 H   0  0  0  0  0  0  0  0  0  0  0  0
   -0.5546    2.6733   -7.2076 Si  0  0  0  0  0  4  0  0  0  0  0  0
    0.6127    3.8333   -8.7339 Si  0  0  0  0  0  4  0  0  0  0  0  0
    1.5979   -1.9518  -10.0972 Si  0  0  0  0  0  4  0  0  0  0  0  0
    0.0217   -1.8751   -8.5119 Si  0  0  0  0  0  4  0  0  0  0  0  0
   -0.7984   -3.0696   -8.6351 H   0  0  0  0  0  0  0  0  0  0  0  0
   -0.7750   -0.6527   -8.7445 H   0  0  0  0  0  0  0  0  0  0  0  0
    0.8003    2.5514  -10.5786 Si  0  0  0  0  0  4  0  0  0  0  0  0
    0.7250   -1.2312  -12.0371 Si  0  0  0  0  0  4  0  0  0  0  0  0
    1.9943    3.5814  -12.1324 Si  0  0  0  0  0  4  0  0  0  0  0  0
    2.4162   -0.2855  -13.1917 Si  0  0  0  0  0  4  0  0  0  0  0  0
    1.9499    4.1029   -8.1758 H   0  0  0  0  0  0  0  0  0  0  0  0
   -0.1258    5.0571   -9.0118 H   0  0  0  0  0  0  0  0  0  0  0  0
    1.5644    1.3478  -10.1553 H   0  0  0  0  0  0  0  0  0  0  0  0
   -0.5484    2.2258  -11.0080 H   0  0  0  0  0  0  0  0  0  0  0  0
    3.3691    0.3584  -12.3046 H   0  0  0  0  0  0  0  0  0  0  0  0
    3.1311   -1.4236  -13.8397 H   0  0  0  0  0  0  0  0  0  0  0  0
    1.2999    3.0999  -14.1827 Si  0  0  0  0  0  4  0  0  0  0  0  0
   -0.1204    3.4925  -14.2828 H   0  0  0  0  0  0  0  0  0  0  0  0
    2.0292    3.9982  -15.1206 H   0  0  0  0  0  0  0  0  0  0  0  0
    1.6241    1.0205  -14.7714 Si  0  0  0  0  0  4  0  0  0  0  0  0
    2.5273    0.9321  -15.9547 H   0  0  0  0  0  0  0  0  0  0  0  0
    0.3292    0.4462  -15.2405 H   0  0  0  0  0  0  0  0  0  0  0  0
    3.4293    3.3149  -11.9616 H   0  0  0  0  0  0  0  0  0  0  0  0
    1.8202    5.0436  -11.9397 H   0  0  0  0  0  0  0  0  0  0  0  0
    0.2409   -2.4008  -12.7819 H   0  0  0  0  0  0  0  0  0  0  0  0
   -0.3609   -0.2954  -11.8302 H   0  0  0  0  0  0  0  0  0  0  0  0
    2.1877   -3.2725  -10.2288 H   0  0  0  0  0  0  0  0  0  0  0  0
    2.6373   -0.9715   -9.7142 H   0  0  0  0  0  0  0  0  0  0  0  0
   -1.3621    1.6559   -7.9028 H   0  0  0  0  0  0  0  0  0  0  0  0
   -1.4820    3.5471   -6.4714 H   0  0  0  0  0  0  0  0  0  0  0  0
  1  2  1  0
  1  5  1  0
  2  3  1  0
  2  4  1  0
  2 11  1  0
  5  6  1  0
  5  7  1  0
  5  8  1  0
  8  9  1  0
  8 36  1  0
  8 37  1  0
  9 14  1  0
  9 18  1  0
  9 19  1  0
 10 11  1  0
 10 15  1  0
 10 34  1  0
 10 35  1  0
 11 12  1  0
 11 13  1  0
 14 16  1  0
 14 20  1  0
 14 21  1  0
 15 17  1  0
 15 32  1  0
 15 33  1  0
 16 24  1  0
 16 30  1  0
 16 31  1  0
 17 22  1  0
 17 23  1  0
 17 27  1  0
 24 25  1  0
 24 26  1  0
 24 27  1  0
 27 28  1  0
 27 29  1  0
M  CHG  1   1   1
M  RAD  1   1   2
M  END
$$$$

     RDKit          3D

 37 37  0  0  0  0  0  0  0  0999 V2000
    0.0376   -0.3284   -5.3275 S   0  0  0  0  0  2  0  0  0  0  0  0
   -1.3442   -1.4253   -6.5375 Si  0  0  0  0  0  4  0  0  0  0  0  0
   -2.7112   -1.3792   -6.0030 H   0  0  0  0  0  0  0  0  0  0  0  0
   -0.9259   -2.8419   -6.6293 H   0  0  0  0  0  0  0  0  0  0  0  0
    2.0369   -1.0707   -5.6643 Si  0  0  0  0  0  4  0  0  0  0  0  0
    1.9283   -2.4535   -6.1112 H   0  0  0  0  0  0  0  0  0  0  0  0
    2.7281   -1.0049   -4.3552 H   0  0  0  0  0  0  0  0  0  0  0  0
    3.1021    0.2289   -7.1146 Si  0  0  0  0  0  4  0  0  0  0  0  0
    4.3361   -0.9841   -8.5441 Si  0  0  0  0  0  4  0  0  0  0  0  0
   -1.3780   -2.1118  -10.0852 Si  0  0  0  0  0  4  0  0  0  0  0  0
   -1.3840   -0.4694   -8.5667 Si  0  0  0  0  0  4  0  0  0  0  0  0
   -2.5835    0.3270   -8.7704 H   0  0  0  0  0  0  0  0  0  0  0  0
   -0.1641    0.3350   -8.7860 H   0  0  0  0  0  0  0  0  0  0  0  0
    3.1297   -1.2682  -10.4270 Si  0  0  0  0  0  4  0  0  0  0  0  0
   -0.5939   -1.3106  -12.0315 Si  0  0  0  0  0  4  0  0  0  0  0  0
    4.2352   -2.5109  -11.8879 Si  0  0  0  0  0  4  0  0  0  0  0  0
    0.4183   -3.0346  -13.0759 Si  0  0  0  0  0  4  0  0  0  0  0  0
    4.6015   -2.2925   -7.9197 H   0  0  0  0  0  0  0  0  0  0  0  0
    5.5599   -0.2398   -8.8061 H   0  0  0  0  0  0  0  0  0  0  0  0
    1.9207   -2.0317  -10.0180 H   0  0  0  0  0  0  0  0  0  0  0  0
    2.8032    0.0562  -10.9256 H   0  0  0  0  0  0  0  0  0  0  0  0
    1.0397   -3.9396  -12.1249 H   0  0  0  0  0  0  0  0  0  0  0  0
   -0.6841   -3.7930  -13.7360 H   0  0  0  0  0  0  0  0  0  0  0  0
    3.8246   -1.9107  -13.9829 Si  0  0  0  0  0  4  0  0  0  0  0  0
    4.2020   -0.4901  -14.1282 H   0  0  0  0  0  0  0  0  0  0  0  0
    4.7684   -2.6653  -14.8537 H   0  0  0  0  0  0  0  0  0  0  0  0
    1.7743   -2.2902  -14.6366 Si  0  0  0  0  0  4  0  0  0  0  0  0
    1.7441   -3.2436  -15.7828 H   0  0  0  0  0  0  0  0  0  0  0  0
    1.2016   -1.0249  -15.1821 H   0  0  0  0  0  0  0  0  0  0  0  0
    3.9812   -3.9414  -11.6665 H   0  0  0  0  0  0  0  0  0  0  0  0
    5.6862   -2.3072  -11.6468 H   0  0  0  0  0  0  0  0  0  0  0  0
   -1.7400   -0.8757  -12.8405 H   0  0  0  0  0  0  0  0  0  0  0  0
    0.3186   -0.2031  -11.8352 H   0  0  0  0  0  0  0  0  0  0  0  0
   -2.6846   -2.7262  -10.2421 H   0  0  0  0  0  0  0  0  0  0  0  0
   -0.3996   -3.1195   -9.6210 H   0  0  0  0  0  0  0  0  0  0  0  0
    2.1019    0.9912   -7.8821 H   0  0  0  0  0  0  0  0  0  0  0  0
    3.9343    1.1994   -6.3855 H   0  0  0  0  0  0  0  0  0  0  0  0
  1  2  1  0
  1  5  1  0
  2  3  1  0
  2  4  1  0
  2 11  1  0
  5  6  1  0
  5  7  1  0
  5  8  1  0
  8  9  1  0
  8 36  1  0
  8 37  1  0
  9 14  1  0
  9 18  1  0
  9 19  1  0
 10 11  1  0
 10 15  1  0
 10 34  1  0
 10 35  1  0
 11 12  1  0
 11 13  1  0
 14 16  1  0
 14 20  1  0
 14 21  1  0
 15 17  1  0
 15 32  1  0
 15 33  1  0
 16 24  1  0
 16 30  1  0
 16 31  1  0
 17 22  1  0
 17 23  1  0
 17 27  1  0
 24 25  1  0
 24 26  1  0
 24 27  1  0
 27 28  1  0
 27 29  1  0
M  CHG  1   1   1
M  RAD  1   1   2
M  END
$$$$

     RDKit          3D

 37 37  0  0  0  0  0  0  0  0999 V2000
    0.0376   -0.3284   -5.3275 S   0  0  0  0  0  2  0  0  0  0  0  0
    2.0068   -1.0443   -5.7363 Si  0  0  0  0  0  4  0  0  0  0  0  0
    1.8835   -2.2505   -6.5870 H   0  0  0  0  0  0  0  0  0  0  0  0
    2.6208   -1.4683   -4.4839 H   0  0  0  0  0  0  0  0  0  0  0  0
   -1.0161    0.1802   -7.1156 Si  0  0  0  0  0  4  0  0  0  0  0  0
   -1.5172    1.5618   -6.9660 H   0  0  0  0  0  0  0  0  0  0  0  0
   -0.1091    0.1325   -8.2744 H   0  0  0  0  0  0  0  0  0  0  0  0
   -2.7571   -1.1923   -7.4483 Si  0  0  0  0  0  4  0  0  0  0  0  0
   -3.0691   -1.5576   -9.6385 Si  0  0  0  0  0  4  0  0  0  0  0  0
    2.9601    0.0773   -9.0341 Si  0  0  0  0  0  4  0  0  0  0  0  0
    3.2320    0.4505   -6.8359 Si  0  0  0  0  0  4  0  0  0  0  0  0
    2.8911    1.8242   -6.4869 H   0  0  0  0  0  0  0  0  0  0  0  0
    4.6539    0.2483   -6.4825 H   0  0  0  0  0  0  0  0  0  0  0  0
   -2.2760    0.1787  -10.7765 Si  0  0  0  0  0  4  0  0  0  0  0  0
    2.4721   -2.0926   -9.2811 Si  0  0  0  0  0  4  0  0  0  0  0  0
   -2.0172   -0.2511  -12.9241 Si  0  0  0  0  0  4  0  0  0  0  0  0
    2.6074   -2.7168  -11.4132 Si  0  0  0  0  0  4  0  0  0  0  0  0
   -2.4356   -2.8117   -9.9870 H   0  0  0  0  0  0  0  0  0  0  0  0
   -4.5183   -1.6988   -9.9415 H   0  0  0  0  0  0  0  0  0  0  0  0
   -1.0294    0.7050  -10.1976 H   0  0  0  0  0  0  0  0  0  0  0  0
   -3.2758    1.2782  -10.6479 H   0  0  0  0  0  0  0  0  0  0  0  0
    3.4541   -1.8250  -12.1866 H   0  0  0  0  0  0  0  0  0  0  0  0
    3.2062   -4.0696  -11.4390 H   0  0  0  0  0  0  0  0  0  0  0  0
    0.0186   -1.0141  -13.4057 Si  0  0  0  0  0  4  0  0  0  0  0  0
    0.0316   -1.3391  -14.8528 H   0  0  0  0  0  0  0  0  0  0  0  0
    1.0014    0.0304  -13.1906 H   0  0  0  0  0  0  0  0  0  0  0  0
    0.5306   -2.8402  -12.2837 Si  0  0  0  0  0  4  0  0  0  0  0  0
   -0.3732   -3.1201  -11.1753 H   0  0  0  0  0  0  0  0  0  0  0  0
    0.4960   -4.0396  -13.1695 H   0  0  0  0  0  0  0  0  0  0  0  0
   -2.1756    1.0316  -13.6689 H   0  0  0  0  0  0  0  0  0  0  0  0
   -3.0730   -1.1396  -13.4285 H   0  0  0  0  0  0  0  0  0  0  0  0
    3.3711   -2.8762   -8.4160 H   0  0  0  0  0  0  0  0  0  0  0  0
    1.1039   -2.3117   -8.7643 H   0  0  0  0  0  0  0  0  0  0  0  0
    1.8477    0.9103   -9.5243 H   0  0  0  0  0  0  0  0  0  0  0  0
    4.1741    0.3703   -9.7854 H   0  0  0  0  0  0  0  0  0  0  0  0
   -3.9875   -0.6380   -6.8620 H   0  0  0  0  0  0  0  0  0  0  0  0
   -2.4435   -2.4595   -6.7753 H   0  0  0  0  0  0  0  0  0  0  0  0
  1  2  1  0
  1  5  1  0
  2  3  1  0
  2  4  1  0
  2 11  1  0
  5  6  1  0
  5  7  1  0
  5  8  1  0
  8  9  1  0
  8 36  1  0
  8 37  1  0
  9 14  1  0
  9 18  1  0
  9 19  1  0
 10 11  1  0
 10 15  1  0
 10 34  1  0
 10 35  1  0
 11 12  1  0
 11 13  1  0
 14 16  1  0
 14 20  1  0
 14 21  1  0
 15 17  1  0
 15 32  1  0
 15 33  1  0
 16 24  1  0
 16 30  1  0
 16 31  1  0
 17 22  1  0
 17 23  1  0
 17 27  1  0
 24 25  1  0
 24 26  1  0
 24 27  1  0
 27 28  1  0
 27 29  1  0
M  CHG  1   1   1
M  RAD  1   1   2
M  END
$$$$

     RDKit          3D

 37 37  0  0  0  0  0  0  0  0999 V2000
    0.0376   -0.3284   -5.3275 S   0  0  0  0  0  2  0  0  0  0  0  0
    0.4596    1.6992   -5.8454 Si  0  0  0  0  0  4  0  0  0  0  0  0
    1.6341    1.7020   -6.7478 H   0  0  0  0  0  0  0  0  0  0  0  0
    0.8486    2.4199   -4.6393 H   0  0  0  0  0  0  0  0  0  0  0  0
   -0.3977   -1.5196   -7.0473 Si  0  0  0  0  0  4  0  0  0  0  0  0
   -1.6902   -2.1952   -6.8123 H   0  0  0  0  0  0  0  0  0  0  0  0
   -0.5236   -0.6668   -8.2410 H   0  0  0  0  0  0  0  0  0  0  0  0
    1.1847   -3.0726   -7.3788 Si  0  0  0  0  0  4  0  0  0  0  0  0
    1.4957   -3.4297   -9.5705 Si  0  0  0  0  0  4  0  0  0  0  0  0
   -0.9208    2.3449   -9.1195 Si  0  0  0  0  0  4  0  0  0  0  0  0
   -1.2340    2.6616   -6.9179 Si  0  0  0  0  0  4  0  0  0  0  0  0
   -2.5321    2.1544   -6.4904 H   0  0  0  0  0  0  0  0  0  0  0  0
   -1.2132    4.1120   -6.6294 H   0  0  0  0  0  0  0  0  0  0  0  0
   -0.3794   -2.9293  -10.6532 Si  0  0  0  0  0  4  0  0  0  0  0  0
    1.2829    2.1434   -9.4518 Si  0  0  0  0  0  4  0  0  0  0  0  0
   -0.0806   -2.7108  -12.8273 Si  0  0  0  0  0  4  0  0  0  0  0  0
    1.7916    2.2666  -11.6151 Si  0  0  0  0  0  4  0  0  0  0  0  0
    2.6355   -2.6491  -10.0029 H   0  0  0  0  0  0  0  0  0  0  0  0
    1.8207   -4.8587   -9.8242 H   0  0  0  0  0  0  0  0  0  0  0  0
   -1.0462   -1.7405  -10.0977 H   0  0  0  0  0  0  0  0  0  0  0  0
   -1.3254   -4.0615  -10.4335 H   0  0  0  0  0  0  0  0  0  0  0  0
    0.7604    2.9501  -12.3765 H   0  0  0  0  0  0  0  0  0  0  0  0
    3.0475    3.0406  -11.7289 H   0  0  0  0  0  0  0  0  0  0  0  0
    0.3757   -0.6141  -13.4227 Si  0  0  0  0  0  4  0  0  0  0  0  0
    0.6341   -0.6219  -14.8832 H   0  0  0  0  0  0  0  0  0  0  0  0
   -0.7833    0.2275  -13.1954 H   0  0  0  0  0  0  0  0  0  0  0  0
    2.1607    0.1888  -12.4103 Si  0  0  0  0  0  4  0  0  0  0  0  0
    2.6083   -0.6188  -11.2829 H   0  0  0  0  0  0  0  0  0  0  0  0
    3.3148    0.2768  -13.3508 H   0  0  0  0  0  0  0  0  0  0  0  0
   -1.3602   -3.0736  -13.5029 H   0  0  0  0  0  0  0  0  0  0  0  0
    0.9216   -3.6585  -13.3331 H   0  0  0  0  0  0  0  0  0  0  0  0
    1.9724    3.1774   -8.6604 H   0  0  0  0  0  0  0  0  0  0  0  0
    1.7088    0.8416   -8.8941 H   0  0  0  0  0  0  0  0  0  0  0  0
   -1.6141    1.1097   -9.5261 H   0  0  0  0  0  0  0  0  0  0  0  0
   -1.4087    3.4737   -9.9018 H   0  0  0  0  0  0  0  0  0  0  0  0
    0.8291   -4.3393   -6.7198 H   0  0  0  0  0  0  0  0  0  0  0  0
    2.4245   -2.5615   -6.7801 H   0  0  0  0  0  0  0  0  0  0  0  0
  1  2  1  0
  1  5  1  0
  2  3  1  0
  2  4  1  0
  2 11  1  0
  5  6  1  0
  5  7  1  0
  5  8  1  0
  8  9  1  0
  8 36  1  0
  8 37  1  0
  9 14  1  0
  9 18  1  0
  9 19  1  0
 10 11  1  0
 10 15  1  0
 10 34  1  0
 10 35  1  0
 11 12  1  0
 11 13  1  0
 14 16  1  0
 14 20  1  0
 14 21  1  0
 15 17  1  0
 15 32  1  0
 15 33  1  0
 16 24  1  0
 16 30  1  0
 16 31  1  0
 17 22  1  0
 17 23  1  0
 17 27  1  0
 24 25  1  0
 24 26  1  0
 24 27  1  0
 27 28  1  0
 27 29  1  0
M  CHG  1   1   1
M  RAD  1   1   2
M  END
$$$$

     RDKit          3D

 37 37  0  0  0  0  0  0  0  0999 V2000
    0.0376   -0.3284   -5.3275 S   0  0  0  0  0  2  0  0  0  0  0  0
    1.4241    0.6538   -6.6275 Si  0  0  0  0  0  4  0  0  0  0  0  0
    2.7928    0.6390   -6.0955 H   0  0  0  0  0  0  0  0  0  0  0  0
    1.0179    2.0620   -6.8331 H   0  0  0  0  0  0  0  0  0  0  0  0
   -1.9565    0.4021   -5.7171 Si  0  0  0  0  0  4  0  0  0  0  0  0
   -1.8375    1.7429   -6.2755 H   0  0  0  0  0  0  0  0  0  0  0  0
   -2.6429    0.4495   -4.4047 H   0  0  0  0  0  0  0  0  0  0  0  0
   -3.0388   -1.0016   -7.0531 Si  0  0  0  0  0  4  0  0  0  0  0  0
   -4.2679    0.1021   -8.5726 Si  0  0  0  0  0  4  0  0  0  0  0  0
    1.4495    1.0486  -10.2194 Si  0  0  0  0  0  4  0  0  0  0  0  0
    1.4473   -0.4646   -8.5721 Si  0  0  0  0  0  4  0  0  0  0  0  0
    2.6390   -1.2857   -8.7142 H   0  0  0  0  0  0  0  0  0  0  0  0
    0.2196   -1.2730   -8.7211 H   0  0  0  0  0  0  0  0  0  0  0  0
   -3.0666    0.2208  -10.4763 Si  0  0  0  0  0  4  0  0  0  0  0  0
    0.6506    0.0987  -12.0913 Si  0  0  0  0  0  4  0  0  0  0  0  0
   -4.1671    1.3504  -12.0300 Si  0  0  0  0  0  4  0  0  0  0  0  0
   -0.3507    1.7410  -13.2694 Si  0  0  0  0  0  4  0  0  0  0  0  0
   -4.5193    1.4593   -8.0560 H   0  0  0  0  0  0  0  0  0  0  0  0
   -5.4993   -0.6500   -8.7690 H   0  0  0  0  0  0  0  0  0  0  0  0
   -1.8494    1.0041  -10.1350 H   0  0  0  0  0  0  0  0  0  0  0  0
   -2.7538   -1.1427  -10.8665 H   0  0  0  0  0  0  0  0  0  0  0  0
   -0.9603    2.7260  -12.3933 H   0  0  0  0  0  0  0  0  0  0  0  0
    0.7557    2.4331  -13.9927 H   0  0  0  0  0  0  0  0  0  0  0  0
   -3.7704    0.5778  -14.0704 Si  0  0  0  0  0  4  0  0  0  0  0  0
   -4.1608   -0.8465  -14.0983 H   0  0  0  0  0  0  0  0  0  0  0  0
   -4.7110    1.2674  -14.9967 H   0  0  0  0  0  0  0  0  0  0  0  0
   -1.7194    0.8842  -14.7597 Si  0  0  0  0  0  4  0  0  0  0  0  0
   -1.6855    1.7407  -15.9799 H   0  0  0  0  0  0  0  0  0  0  0  0
   -1.1600   -0.4265  -15.2022 H   0  0  0  0  0  0  0  0  0  0  0  0
   -3.8997    2.7918  -11.9268 H   0  0  0  0  0  0  0  0  0  0  0  0
   -5.6189    1.1801  -11.7683 H   0  0  0  0  0  0  0  0  0  0  0  0
    1.7896   -0.4111  -12.8660 H   0  0  0  0  0  0  0  0  0  0  0  0
   -0.2707   -0.9808  -11.8024 H   0  0  0  0  0  0  0  0  0  0  0  0
    2.7608    1.6364  -10.4302 H   0  0  0  0  0  0  0  0  0  0  0  0
    0.4819    2.0996   -9.8356 H   0  0  0  0  0  0  0  0  0  0  0  0
   -2.0485   -1.8329   -7.7592 H   0  0  0  0  0  0  0  0  0  0  0  0
   -3.8765   -1.9019   -6.2446 H   0  0  0  0  0  0  0  0  0  0  0  0
  1  2  1  0
  1  5  1  0
  2  3  1  0
  2  4  1  0
  2 11  1  0
  5  6  1  0
  5  7  1  0
  5  8  1  0
  8  9  1  0
  8 36  1  0
  8 37  1  0
  9 14  1  0
  9 18  1  0
  9 19  1  0
 10 11  1  0
 10 15  1  0
 10 34  1  0
 10 35  1  0
 11 12  1  0
 11 13  1  0
 14 16  1  0
 14 20  1  0
 14 21  1  0
 15 17  1  0
 15 32  1  0
 15 33  1  0
 16 24  1  0
 16 30  1  0
 16 31  1  0
 17 22  1  0
 17 23  1  0
 17 27  1  0
 24 25  1  0
 24 26  1  0
 24 27  1  0
 27 28  1  0
 27 29  1  0
M  CHG  1   1   1
M  RAD  1   1   2
M  END
$$$$
