
     RDKit          3D

 37 37  0  0  0  0  0  0  0  0999 V2000
   -0.1361    0.0950    3.1812 S   0  0  0  0  0  2  0  0  0  0  0  0
   -2.0406    0.9201    3.5962 Si  0  0  0  0  0  4  0  0  0  0  0  0
   -3.0301    0.2646    2.6938 H   0  0  0  0  0  0  0  0  0  0  0  0
   -2.1000    2.3495    3.2991 H   0  0  0  0  0  0  0  0  0  0  0  0
    1.2376    0.2744    4.7836 Si  0  0  0  0  0  4  0  0  0  0  0  0
    1.0217    1.4614    5.6115 H   0  0  0  0  0  0  0  0  0  0  0  0
    2.6013    0.4092    4.2056 H   0  0  0  0  0  0  0  0  0  0  0  0
    1.2060   -1.5899    6.0347 Si  0  0  0  0  0  4  0  0  0  0  0  0
    0.9483   -1.0699    8.1921 Si  0  0  0  0  0  4  0  0  0  0  0  0
   -3.8140   -1.3924    5.7289 Si  0  0  0  0  0  4  0  0  0  0  0  0
   -2.7136    0.5223    5.6833 Si  0  0  0  0  0  4  0  0  0  0  0  0
   -1.5488    0.4690    6.5868 H   0  0  0  0  0  0  0  0  0  0  0  0
   -3.5422    1.6539    6.1392 H   0  0  0  0  0  0  0  0  0  0  0  0
   -0.5294   -2.4520    9.1614 Si  0  0  0  0  0  4  0  0  0  0  0  0
   -5.6638   -1.2984    6.9434 Si  0  0  0  0  0  4  0  0  0  0  0  0
   -1.0652   -1.6367   11.1707 Si  0  0  0  0  0  4  0  0  0  0  0  0
   -5.4965    0.0612    8.6721 Si  0  0  0  0  0  4  0  0  0  0  0  0
    0.5149    0.3192    8.3169 H   0  0  0  0  0  0  0  0  0  0  0  0
    2.2470   -1.2882    8.8526 H   0  0  0  0  0  0  0  0  0  0  0  0
    0.0640   -3.7812    9.3218 H   0  0  0  0  0  0  0  0  0  0  0  0
   -1.7474   -2.4740    8.3384 H   0  0  0  0  0  0  0  0  0  0  0  0
   -6.8307    0.5957    9.0529 H   0  0  0  0  0  0  0  0  0  0  0  0
   -4.6903    1.2267    8.2789 H   0  0  0  0  0  0  0  0  0  0  0  0
   -2.6222   -0.0522   10.8598 Si  0  0  0  0  0  4  0  0  0  0  0  0
   -2.7070    0.8377   12.0129 H   0  0  0  0  0  0  0  0  0  0  0  0
   -2.1673    0.7655    9.7123 H   0  0  0  0  0  0  0  0  0  0  0  0
   -4.6028   -1.0094   10.4200 Si  0  0  0  0  0  4  0  0  0  0  0  0
   -5.4754   -0.8527   11.6056 H   0  0  0  0  0  0  0  0  0  0  0  0
   -4.4352   -2.4402   10.1289 H   0  0  0  0  0  0  0  0  0  0  0  0
    0.1040   -0.9865   11.7587 H   0  0  0  0  0  0  0  0  0  0  0  0
   -1.5355   -2.6791   12.0818 H   0  0  0  0  0  0  0  0  0  0  0  0
   -5.9429   -2.6722    7.4417 H   0  0  0  0  0  0  0  0  0  0  0  0
   -6.7816   -0.8540    6.0893 H   0  0  0  0  0  0  0  0  0  0  0  0
   -4.2115   -1.7801    4.3443 H   0  0  0  0  0  0  0  0  0  0  0  0
   -2.9022   -2.4476    6.2347 H   0  0  0  0  0  0  0  0  0  0  0  0
    2.4296   -2.3848    5.8321 H   0  0  0  0  0  0  0  0  0  0  0  0
    0.0705   -2.4394    5.6251 H   0  0  0  0  0  0  0  0  0  0  0  0
  1  2  1  0
  1  5  1  0
  2  3  1  0
  2  4  1  0
  2 11  1  0
  5  6  1  0
  5  7  1  0
  5  8  1  0
  8  9  1  0
  8 36  1  0
  8 37  1  0
  9 14  1  0
  9 18  1  0
  9 19  1  0
 10 11  1  0
 10 15  1  0
 10 34  1  0
 10 35  1  0
 11 12  1  0
 11 13  1  0
 14 16  1  0
 14 20  1  0
 14 21  1  0
 15 17  1  0
 15 32  1  0
 15 33  1  0
 16 24  1  0
 16 30  1  0
 16 31  1  0
 17 22  1  0
 17 23  1  0
 17 27  1  0
 24 25  1  0
 24 26  1  0
 24 27  1  0
 27 28  1  0
 27 29  1  0
M  CHG  1   1   1
M  RAD  1   1   2
M  END
$$$$

     RDKit          3D

 37 37  0  0  0  0  0  0  0  0999 V2000
   -0.1361    0.0950    3.1812 S   0  0  0  0  0  2  0  0  0  0  0  0
    1.4548    1.0529    4.1615 Si  0  0  0  0  0  4  0  0  0  0  0  0
    2.7161    0.8498    3.4142 H   0  0  0  0  0  0  0  0  0  0  0  0
    1.2157    2.5217    4.1435 H   0  0  0  0  0  0  0  0  0  0  0  0
   -1.0294   -1.4825    4.2750 Si  0  0  0  0  0  4  0  0  0  0  0  0
   -0.4193   -1.7435    5.5596 H   0  0  0  0  0  0  0  0  0  0  0  0
   -0.9021   -2.7285    3.4677 H   0  0  0  0  0  0  0  0  0  0  0  0
   -3.2268   -1.0510    4.4504 Si  0  0  0  0  0  4  0  0  0  0  0  0
   -3.7235   -0.2244    6.4578 Si  0  0  0  0  0  4  0  0  0  0  0  0
    2.9388   -1.4853    6.3745 Si  0  0  0  0  0  4  0  0  0  0  0  0
    1.7634    0.4252    6.2454 Si  0  0  0  0  0  4  0  0  0  0  0  0
    2.5909    1.4609    6.9266 H   0  0  0  0  0  0  0  0  0  0  0  0
    0.5322    0.3064    7.0145 H   0  0  0  0  0  0  0  0  0  0  0  0
   -2.8258   -1.5468    8.0033 Si  0  0  0  0  0  4  0  0  0  0  0  0
    3.9435   -1.6073    8.3820 Si  0  0  0  0  0  4  0  0  0  0  0  0
   -2.2507   -0.3925    9.8249 Si  0  0  0  0  0  4  0  0  0  0  0  0
    2.7139   -3.0203    9.6287 Si  0  0  0  0  0  4  0  0  0  0  0  0
   -5.1963   -0.2668    6.5980 H   0  0  0  0  0  0  0  0  0  0  0  0
   -3.2151    1.1393    6.5856 H   0  0  0  0  0  0  0  0  0  0  0  0
   -1.6403   -2.2034    7.4029 H   0  0  0  0  0  0  0  0  0  0  0  0
   -3.7575   -2.6306    8.3883 H   0  0  0  0  0  0  0  0  0  0  0  0
    2.9643   -4.4040    9.2408 H   0  0  0  0  0  0  0  0  0  0  0  0
    2.9453   -2.7777   11.0449 H   0  0  0  0  0  0  0  0  0  0  0  0
   -0.0331   -0.6170   10.1351 Si  0  0  0  0  0  4  0  0  0  0  0  0
    0.2925   -0.6304   11.5666 H   0  0  0  0  0  0  0  0  0  0  0  0
    0.6941    0.4512    9.4635 H   0  0  0  0  0  0  0  0  0  0  0  0
    0.5585   -2.5658    9.1863 Si  0  0  0  0  0  4  0  0  0  0  0  0
   -0.3103   -3.6569    9.6108 H   0  0  0  0  0  0  0  0  0  0  0  0
    0.4535   -2.3702    7.7246 H   0  0  0  0  0  0  0  0  0  0  0  0
   -2.6189    1.0165    9.6928 H   0  0  0  0  0  0  0  0  0  0  0  0
   -2.9015   -0.9660   11.0230 H   0  0  0  0  0  0  0  0  0  0  0  0
    5.3227   -2.0581    8.2652 H   0  0  0  0  0  0  0  0  0  0  0  0
    3.8651   -0.2904    9.0553 H   0  0  0  0  0  0  0  0  0  0  0  0
    1.9989   -2.5844    6.1785 H   0  0  0  0  0  0  0  0  0  0  0  0
    3.9518   -1.5627    5.3296 H   0  0  0  0  0  0  0  0  0  0  0  0
   -4.0147   -2.2716    4.2604 H   0  0  0  0  0  0  0  0  0  0  0  0
   -3.6457   -0.0551    3.4412 H   0  0  0  0  0  0  0  0  0  0  0  0
  1  2  1  0
  1  5  1  0
  2  3  1  0
  2  4  1  0
  2 11  1  0
  5  6  1  0
  5  7  1  0
  5  8  1  0
  8  9  1  0
  8 36  1  0
  8 37  1  0
  9 14  1  0
  9 18  1  0
  9 19  1  0
 10 11  1  0
 10 15  1  0
 10 34  1  0
 10 35  1  0
 11 12  1  0
 11 13  1  0
 14 16  1  0
 14 20  1  0
 14 21  1  0
 15 17  1  0
 15 32  1  0
 15 33  1  0
 16 24  1  0
 16 30  1  0
 16 31  1  0
 17 22  1  0
 17 23  1  0
 17 27  1  0
 24 25  1  0
 24 26  1  0
 24 27  1  0
 27 28  1  0
 27 29  1  0
M  CHG  1   1   1
M  RAD  1   1   2
M  END
$$$$

     RDKit          3D

 37 37  0  0  0  0  0  0  0  0999 V2000
   -0.1361    0.0950    3.1812 S   0  0  0  0  0  2  0  0  0  0  0  0
   -0.8871    1.9379    3.9194 Si  0  0  0  0  0  4  0  0  0  0  0  0
   -1.0671    2.8503    2.7546 H   0  0  0  0  0  0  0  0  0  0  0  0
    0.0281    2.6100    4.8332 H   0  0  0  0  0  0  0  0  0  0  0  0
    1.7425   -0.4396    4.0097 Si  0  0  0  0  0  4  0  0  0  0  0  0
    1.6060   -1.0179    5.3562 H   0  0  0  0  0  0  0  0  0  0  0  0
    2.3215   -1.5174    3.1609 H   0  0  0  0  0  0  0  0  0  0  0  0
    3.1956    1.2476    3.9939 Si  0  0  0  0  0  4  0  0  0  0  0  0
    3.8684    1.6017    6.1186 Si  0  0  0  0  0  4  0  0  0  0  0  0
   -3.0891   -0.3007    5.8533 Si  0  0  0  0  0  4  0  0  0  0  0  0
   -2.9216    1.6735    4.8433 Si  0  0  0  0  0  4  0  0  0  0  0  0
   -3.9421    1.7571    3.7821 H   0  0  0  0  0  0  0  0  0  0  0  0
   -3.2100    2.7688    5.7895 H   0  0  0  0  0  0  0  0  0  0  0  0
    2.0830    1.9741    7.3467 Si  0  0  0  0  0  4  0  0  0  0  0  0
   -2.0465   -0.3092    7.8188 Si  0  0  0  0  0  4  0  0  0  0  0  0
    2.2099    1.1371    9.3866 Si  0  0  0  0  0  4  0  0  0  0  0  0
   -2.6314    1.4166    9.0856 Si  0  0  0  0  0  4  0  0  0  0  0  0
    4.6213    0.4423    6.5695 H   0  0  0  0  0  0  0  0  0  0  0  0
    4.7718    2.7661    6.0915 H   0  0  0  0  0  0  0  0  0  0  0  0
    0.8953    1.3586    6.6882 H   0  0  0  0  0  0  0  0  0  0  0  0
    1.8194    3.4325    7.4673 H   0  0  0  0  0  0  0  0  0  0  0  0
   -3.7928    2.1018    8.5211 H   0  0  0  0  0  0  0  0  0  0  0  0
   -2.9273    0.9762   10.4783 H   0  0  0  0  0  0  0  0  0  0  0  0
    0.5880    2.1051   10.6172 Si  0  0  0  0  0  4  0  0  0  0  0  0
    1.1530    3.1999   11.3990 H   0  0  0  0  0  0  0  0  0  0  0  0
   -0.0378    1.0984   11.5025 H   0  0  0  0  0  0  0  0  0  0  0  0
   -0.9802    2.9219    9.2430 Si  0  0  0  0  0  4  0  0  0  0  0  0
   -0.3886    3.0936    7.8855 H   0  0  0  0  0  0  0  0  0  0  0  0
   -1.4959    4.1998    9.6890 H   0  0  0  0  0  0  0  0  0  0  0  0
    1.8561   -0.3025    9.3135 H   0  0  0  0  0  0  0  0  0  0  0  0
    3.5117    1.2913   10.0043 H   0  0  0  0  0  0  0  0  0  0  0  0
   -0.6074   -0.3103    7.5691 H   0  0  0  0  0  0  0  0  0  0  0  0
   -2.4197   -1.5623    8.5170 H   0  0  0  0  0  0  0  0  0  0  0  0
   -2.4385   -1.3023    4.9879 H   0  0  0  0  0  0  0  0  0  0  0  0
   -4.4924   -0.6880    6.0020 H   0  0  0  0  0  0  0  0  0  0  0  0
    4.3756    0.9661    3.1914 H   0  0  0  0  0  0  0  0  0  0  0  0
    2.5628    2.4807    3.4664 H   0  0  0  0  0  0  0  0  0  0  0  0
  1  2  1  0
  1  5  1  0
  2  3  1  0
  2  4  1  0
  2 11  1  0
  5  6  1  0
  5  7  1  0
  5  8  1  0
  8  9  1  0
  8 36  1  0
  8 37  1  0
  9 14  1  0
  9 18  1  0
  9 19  1  0
 10 11  1  0
 10 15  1  0
 10 34  1  0
 10 35  1  0
 11 12  1  0
 11 13  1  0
 14 16  1  0
 14 20  1  0
 14 21  1  0
 15 17  1  0
 15 32  1  0
 15 33  1  0
 16 24  1  0
 16 30  1  0
 16 31  1  0
 17 22  1  0
 17 23  1  0
 17 27  1  0
 24 25  1  0
 24 26  1  0
 24 27  1  0
 27 28  1  0
 27 29  1  0
M  CHG  1   1   1
M  RAD  1   1   2
M  END
$$$$

     RDKit          3D

 37 37  0  0  0  0  0  0  0  0999 V2000
   -0.1361    0.0950    3.1812 S   0  0  0  0  0  2  0  0  0  0  0  0
    0.7959    1.9538    3.5773 Si  0  0  0  0  0  4  0  0  0  0  0  0
    0.2006    2.9688    2.6616 H   0  0  0  0  0  0  0  0  0  0  0  0
    2.2271    1.9276    3.2843 H   0  0  0  0  0  0  0  0  0  0  0  0
   -0.0401   -1.2681    4.7996 Si  0  0  0  0  0  4  0  0  0  0  0  0
    1.1552   -1.1112    5.6290 H   0  0  0  0  0  0  0  0  0  0  0  0
    0.0178   -2.6439    4.2376 H   0  0  0  0  0  0  0  0  0  0  0  0
   -1.9027   -1.1152    6.0441 Si  0  0  0  0  0  4  0  0  0  0  0  0
   -1.3745   -0.8630    8.2002 Si  0  0  0  0  0  4  0  0  0  0  0  0
   -1.4166    3.8812    5.6822 Si  0  0  0  0  0  4  0  0  0  0  0  0
    0.4318    2.6724    5.6554 Si  0  0  0  0  0  4  0  0  0  0  0  0
    0.3094    1.5230    6.5718 H   0  0  0  0  0  0  0  0  0  0  0  0
    1.6079    3.4399    6.1056 H   0  0  0  0  0  0  0  0  0  0  0  0
   -2.6721    0.7026    9.1481 Si  0  0  0  0  0  4  0  0  0  0  0  0
   -1.2198    5.7365    6.8758 Si  0  0  0  0  0  4  0  0  0  0  0  0
   -1.8327    1.2139   11.1539 Si  0  0  0  0  0  4  0  0  0  0  0  0
    0.1233    5.5114    8.6109 Si  0  0  0  0  0  4  0  0  0  0  0  0
    0.0368   -0.5086    8.3247 H   0  0  0  0  0  0  0  0  0  0  0  0
   -1.6688   -2.1394    8.8747 H   0  0  0  0  0  0  0  0  0  0  0  0
   -4.0337    0.1883    9.3109 H   0  0  0  0  0  0  0  0  0  0  0  0
   -2.6220    1.9102    8.3113 H   0  0  0  0  0  0  0  0  0  0  0  0
    0.7325    6.8170    8.9783 H   0  0  0  0  0  0  0  0  0  0  0  0
    1.2417    4.6352    8.2306 H   0  0  0  0  0  0  0  0  0  0  0  0
   -0.1607    2.6737   10.8306 Si  0  0  0  0  0  4  0  0  0  0  0  0
    0.7296    2.7205   11.9856 H   0  0  0  0  0  0  0  0  0  0  0  0
    0.6326    2.1594    9.6910 H   0  0  0  0  0  0  0  0  0  0  0  0
   -1.0015    4.7007   10.3652 Si  0  0  0  0  0  4  0  0  0  0  0  0
   -0.7981    5.5765   11.5413 H   0  0  0  0  0  0  0  0  0  0  0  0
   -2.4387    4.6122   10.0713 H   0  0  0  0  0  0  0  0  0  0  0  0
   -1.2522    0.0161   11.7573 H   0  0  0  0  0  0  0  0  0  0  0  0
   -2.8489    1.7536   12.0561 H   0  0  0  0  0  0  0  0  0  0  0  0
   -2.5767    6.0996    7.3664 H   0  0  0  0  0  0  0  0  0  0  0  0
   -0.7098    6.8171    6.0107 H   0  0  0  0  0  0  0  0  0  0  0  0
   -1.7772    4.2843    4.2918 H   0  0  0  0  0  0  0  0  0  0  0  0
   -2.5238    3.0374    6.1947 H   0  0  0  0  0  0  0  0  0  0  0  0
   -2.7661   -2.2935    5.8528 H   0  0  0  0  0  0  0  0  0  0  0  0
   -2.6847    0.0623    5.6189 H   0  0  0  0  0  0  0  0  0  0  0  0
  1  2  1  0
  1  5  1  0
  2  3  1  0
  2  4  1  0
  2 11  1  0
  5  6  1  0
  5  7  1  0
  5  8  1  0
  8  9  1  0
  8 36  1  0
  8 37  1  0
  9 14  1  0
  9 18  1  0
  9 19  1  0
 10 11  1  0
 10 15  1  0
 10 34  1  0
 10 35  1  0
 11 12  1  0
 11 13  1  0
 14 16  1  0
 14 20  1  0
 14 21  1  0
 15 17  1  0
 15 32  1  0
 15 33  1  0
 16 24  1  0
 16 30  1  0
 16 31  1  0
 17 22  1  0
 17 23  1  0
 17 27  1  0
 24 25  1  0
 24 26  1  0
 24 27  1  0
 27 28  1  0
 27 29  1  0
M  CHG  1   1   1
M  RAD  1   1   2
M  END
$$$$

     RDKit          3D

 37 37  0  0  0  0  0  0  0  0999 V2000
   -0.1361    0.0950    3.1812 S   0  0  0  0  0  2  0  0  0  0  0  0
   -2.0104    0.9869    3.5956 Si  0  0  0  0  0  4  0  0  0  0  0  0
   -3.0222    0.3665    2.6931 H   0  0  0  0  0  0  0  0  0  0  0  0
   -2.0192    2.4174    3.2983 H   0  0  0  0  0  0  0  0  0  0  0  0
    1.2426    0.2260    4.7839 Si  0  0  0  0  0  4  0  0  0  0  0  0
    1.0686    1.4201    5.6116 H   0  0  0  0  0  0  0  0  0  0  0  0
    2.6104    0.3126    4.2062 H   0  0  0  0  0  0  0  0  0  0  0  0
    1.1450   -1.6357    6.0353 Si  0  0  0  0  0  4  0  0  0  0  0  0
    0.9053   -1.1067    8.1925 Si  0  0  0  0  0  4  0  0  0  0  0  0
   -3.8648   -1.2613    5.7282 Si  0  0  0  0  0  4  0  0  0  0  0  0
   -2.6975    0.6133    5.6826 Si  0  0  0  0  0  4  0  0  0  0  0  0
   -1.5355    0.5191    6.5864 H   0  0  0  0  0  0  0  0  0  0  0  0
   -3.4858    1.7735    6.1382 H   0  0  0  0  0  0  0  0  0  0  0  0
   -0.6205   -2.4356    9.1616 Si  0  0  0  0  0  4  0  0  0  0  0  0
   -5.7104   -1.1019    6.9422 Si  0  0  0  0  0  4  0  0  0  0  0  0
   -1.1277   -1.6016   11.1707 Si  0  0  0  0  0  4  0  0  0  0  0  0
   -5.4957    0.2511    8.6708 Si  0  0  0  0  0  4  0  0  0  0  0  0
    0.5211    0.2969    8.3171 H   0  0  0  0  0  0  0  0  0  0  0  0
    2.1954   -1.3705    8.8534 H   0  0  0  0  0  0  0  0  0  0  0  0
   -0.0744   -3.7850    9.3224 H   0  0  0  0  0  0  0  0  0  0  0  0
   -1.8382   -2.4148    8.3384 H   0  0  0  0  0  0  0  0  0  0  0  0
   -6.8103    0.8325    9.0512 H   0  0  0  0  0  0  0  0  0  0  0  0
   -4.6488    1.3874    8.2776 H   0  0  0  0  0  0  0  0  0  0  0  0
   -2.6278    0.0367   10.8592 Si  0  0  0  0  0  4  0  0  0  0  0  0
   -2.6813    0.9292   12.0122 H   0  0  0  0  0  0  0  0  0  0  0  0
   -2.1440    0.8377    9.7117 H   0  0  0  0  0  0  0  0  0  0  0  0
   -4.6407   -0.8501   10.4190 Si  0  0  0  0  0  4  0  0  0  0  0  0
   -5.5076   -0.6625   11.6044 H   0  0  0  0  0  0  0  0  0  0  0  0
   -4.5237   -2.2859   10.1282 H   0  0  0  0  0  0  0  0  0  0  0  0
    0.0636   -0.9930   11.7589 H   0  0  0  0  0  0  0  0  0  0  0  0
   -1.6347   -2.6267   12.0818 H   0  0  0  0  0  0  0  0  0  0  0  0
   -6.0379   -2.4650    7.4406 H   0  0  0  0  0  0  0  0  0  0  0  0
   -6.8117   -0.6185    6.0878 H   0  0  0  0  0  0  0  0  0  0  0  0
   -4.2753   -1.6350    4.3436 H   0  0  0  0  0  0  0  0  0  0  0  0
   -2.9909   -2.3480    6.2344 H   0  0  0  0  0  0  0  0  0  0  0  0
    2.3399   -2.4734    5.8331 H   0  0  0  0  0  0  0  0  0  0  0  0
   -0.0197   -2.4448    5.6255 H   0  0  0  0  0  0  0  0  0  0  0  0
  1  2  1  0
  1  5  1  0
  2  3  1  0
  2  4  1  0
  2 11  1  0
  5  6  1  0
  5  7  1  0
  5  8  1  0
  8  9  1  0
  8 36  1  0
  8 37  1  0
  9 14  1  0
  9 18  1  0
  9 19  1  0
 10 11  1  0
 10 15  1  0
 10 34  1  0
 10 35  1  0
 11 12  1  0
 11 13  1  0
 14 16  1  0
 14 20  1  0
 14 21  1  0
 15 17  1  0
 15 32  1  0
 15 33  1  0
 16 24  1  0
 16 30  1  0
 16 31  1  0
 17 22  1  0
 17 23  1  0
 17 27  1  0
 24 25  1  0
 24 26  1  0
 24 27  1  0
 27 28  1  0
 27 29  1  0
M  CHG  1   1   1
M  RAD  1   1   2
M  END
$$$$

     RDKit          3D

 37 37  0  0  0  0  0  0  0  0999 V2000
   -0.1361    0.0950    3.1812 S   0  0  0  0  0  2  0  0  0  0  0  0
    1.4873    0.9963    4.1617 Si  0  0  0  0  0  4  0  0  0  0  0  0
    2.7409    0.7487    3.4148 H   0  0  0  0  0  0  0  0  0  0  0  0
    1.3002    2.4726    4.1435 H   0  0  0  0  0  0  0  0  0  0  0  0
   -1.0848   -1.4499    4.2750 Si  0  0  0  0  0  4  0  0  0  0  0  0
   -0.4845   -1.7320    5.5598 H   0  0  0  0  0  0  0  0  0  0  0  0
   -1.0013   -2.6997    3.4679 H   0  0  0  0  0  0  0  0  0  0  0  0
   -3.2656   -0.9411    4.4498 Si  0  0  0  0  0  4  0  0  0  0  0  0
   -3.7333   -0.0972    6.4569 Si  0  0  0  0  0  4  0  0  0  0  0  0
    2.8804   -1.5923    6.3755 Si  0  0  0  0  0  4  0  0  0  0  0  0
    1.7731    0.3585    6.2458 Si  0  0  0  0  0  4  0  0  0  0  0  0
    2.6365    1.3644    6.9271 H   0  0  0  0  0  0  0  0  0  0  0  0
    0.5383    0.2833    7.0147 H   0  0  0  0  0  0  0  0  0  0  0  0
   -2.8832   -1.4501    8.0029 Si  0  0  0  0  0  4  0  0  0  0  0  0
    3.8796   -1.7494    8.3832 Si  0  0  0  0  0  4  0  0  0  0  0  0
   -2.2682   -0.3166    9.8245 Si  0  0  0  0  0  4  0  0  0  0  0  0
    2.6007   -3.1179    9.6298 Si  0  0  0  0  0  4  0  0  0  0  0  0
   -5.2068   -0.0876    6.5968 H   0  0  0  0  0  0  0  0  0  0  0  0
   -3.1772    1.2478    6.5847 H   0  0  0  0  0  0  0  0  0  0  0  0
   -1.7214   -2.1483    7.4028 H   0  0  0  0  0  0  0  0  0  0  0  0
   -3.8527   -2.5004    8.3878 H   0  0  0  0  0  0  0  0  0  0  0  0
    2.8022   -4.5097    9.2422 H   0  0  0  0  0  0  0  0  0  0  0  0
    2.8401   -2.8835   11.0460 H   0  0  0  0  0  0  0  0  0  0  0  0
   -0.0600   -0.6192   10.1352 Si  0  0  0  0  0  4  0  0  0  0  0  0
    0.2646   -0.6438   11.5668 H   0  0  0  0  0  0  0  0  0  0  0  0
    0.7046    0.4226    9.4637 H   0  0  0  0  0  0  0  0  0  0  0  0
    0.4628   -2.5878    9.1868 Si  0  0  0  0  0  4  0  0  0  0  0  0
   -0.4441   -3.6475    9.6113 H   0  0  0  0  0  0  0  0  0  0  0  0
    0.3651   -2.3888    7.7251 H   0  0  0  0  0  0  0  0  0  0  0  0
   -2.5864    1.1044    9.6921 H   0  0  0  0  0  0  0  0  0  0  0  0
   -2.9391   -0.8666   11.0224 H   0  0  0  0  0  0  0  0  0  0  0  0
    5.2421   -2.2486    8.2669 H   0  0  0  0  0  0  0  0  0  0  0  0
    3.8475   -0.4304    9.0564 H   0  0  0  0  0  0  0  0  0  0  0  0
    1.9023   -2.6576    6.1794 H   0  0  0  0  0  0  0  0  0  0  0  0
    3.8902   -1.7056    5.3309 H   0  0  0  0  0  0  0  0  0  0  0  0
   -4.0961   -2.1332    4.2598 H   0  0  0  0  0  0  0  0  0  0  0  0
   -3.6489    0.0688    3.4404 H   0  0  0  0  0  0  0  0  0  0  0  0
  1  2  1  0
  1  5  1  0
  2  3  1  0
  2  4  1  0
  2 11  1  0
  5  6  1  0
  5  7  1  0
  5  8  1  0
  8  9  1  0
  8 36  1  0
  8 37  1  0
  9 14  1  0
  9 18  1  0
  9 19  1  0
 10 11  1  0
 10 15  1  0
 10 34  1  0
 10 35  1  0
 11 12  1  0
 11 13  1  0
 14 16  1  0
 14 20  1  0
 14 21  1  0
 15 17  1  0
 15 32  1  0
 15 33  1  0
 16 24  1  0
 16 30  1  0
 16 31  1  0
 17 22  1  0
 17 23  1  0
 17 27  1  0
 24 25  1  0
 24 26  1  0
 24 27  1  0
 27 28  1  0
 27 29  1  0
M  CHG  1   1   1
M  RAD  1   1   2
M  END
$$$$
