
     RDKit          3D

 37 37  0  0  0  0  0  0  0  0999 V2000
   -0.1622    0.5367   -2.6069 S   0  0  0  0  0  2  0  0  0  0  0  0
   -1.8754    0.7421   -3.8980 Si  0  0  0  0  0  4  0  0  0  0  0  0
   -3.0309    1.0872   -3.0425 H   0  0  0  0  0  0  0  0  0  0  0  0
   -1.6571    1.7635   -4.9069 H   0  0  0  0  0  0  0  0  0  0  0  0
    1.6575    0.5019   -3.7142 Si  0  0  0  0  0  4  0  0  0  0  0  0
    2.4278    1.7195   -3.3819 H   0  0  0  0  0  0  0  0  0  0  0  0
    2.4835   -0.6395   -3.2607 H   0  0  0  0  0  0  0  0  0  0  0  0
    1.3108    0.3599   -5.9061 Si  0  0  0  0  0  4  0  0  0  0  0  0
    2.1137   -1.5838   -6.6582 Si  0  0  0  0  0  4  0  0  0  0  0  0
   -4.3350   -1.5041   -5.4832 Si  0  0  0  0  0  4  0  0  0  0  0  0
   -2.2532   -1.2734   -4.8147 Si  0  0  0  0  0  4  0  0  0  0  0  0
   -1.9994   -2.2679   -3.7328 H   0  0  0  0  0  0  0  0  0  0  0  0
   -1.2592   -1.5148   -5.8455 H   0  0  0  0  0  0  0  0  0  0  0  0
    1.6126   -1.9242   -8.7861 Si  0  0  0  0  0  4  0  0  0  0  0  0
   -4.6675   -0.8158   -7.5659 Si  0  0  0  0  0  4  0  0  0  0  0  0
   -0.5308   -1.4531   -9.2262 Si  0  0  0  0  0  4  0  0  0  0  0  0
   -3.9534    1.2439   -7.9143 Si  0  0  0  0  0  4  0  0  0  0  0  0
    3.5913   -1.5132   -6.5347 H   0  0  0  0  0  0  0  0  0  0  0  0
    1.6880   -2.7026   -5.7988 H   0  0  0  0  0  0  0  0  0  0  0  0
    2.4311   -1.0297   -9.6297 H   0  0  0  0  0  0  0  0  0  0  0  0
    1.8405   -3.3183   -9.1349 H   0  0  0  0  0  0  0  0  0  0  0  0
   -5.0962    2.1966   -8.0182 H   0  0  0  0  0  0  0  0  0  0  0  0
   -3.1403    1.6968   -6.7924 H   0  0  0  0  0  0  0  0  0  0  0  0
   -0.7101    0.7194   -9.5859 Si  0  0  0  0  0  4  0  0  0  0  0  0
   -0.0416    1.4790   -8.5314 H   0  0  0  0  0  0  0  0  0  0  0  0
   -0.0070    1.0348  -10.8508 H   0  0  0  0  0  0  0  0  0  0  0  0
   -2.8234    1.3719   -9.8230 Si  0  0  0  0  0  4  0  0  0  0  0  0
   -2.7965    2.7994  -10.2372 H   0  0  0  0  0  0  0  0  0  0  0  0
   -3.4693    0.6310  -10.8886 H   0  0  0  0  0  0  0  0  0  0  0  0
   -1.4271   -1.9552   -8.1986 H   0  0  0  0  0  0  0  0  0  0  0  0
   -0.8815   -2.1678  -10.4870 H   0  0  0  0  0  0  0  0  0  0  0  0
   -6.1353   -0.8395   -7.8114 H   0  0  0  0  0  0  0  0  0  0  0  0
   -4.0769   -1.7213   -8.5622 H   0  0  0  0  0  0  0  0  0  0  0  0
   -5.2219   -0.7748   -4.5852 H   0  0  0  0  0  0  0  0  0  0  0  0
   -4.6991   -2.9337   -5.4175 H   0  0  0  0  0  0  0  0  0  0  0  0
   -0.0940    0.5473   -6.2388 H   0  0  0  0  0  0  0  0  0  0  0  0
    2.0665    1.4327   -6.5958 H   0  0  0  0  0  0  0  0  0  0  0  0
  1  2  1  0
  1  5  1  0
  2  3  1  0
  2  4  1  0
  2 11  1  0
  5  6  1  0
  5  7  1  0
  5  8  1  0
  8  9  1  0
  8 36  1  0
  8 37  1  0
  9 14  1  0
  9 18  1  0
  9 19  1  0
 10 11  1  0
 10 15  1  0
 10 34  1  0
 10 35  1  0
 11 12  1  0
 11 13  1  0
 14 16  1  0
 14 20  1  0
 14 21  1  0
 15 17  1  0
 15 32  1  0
 15 33  1  0
 16 24  1  0
 16 30  1  0
 16 31  1  0
 17 22  1  0
 17 23  1  0
 17 27  1  0
 24 25  1  0
 24 26  1  0
 24 27  1  0
 27 28  1  0
 27 29  1  0
M  CHG  1   1   1
M  RAD  1   1   2
M  END
$$$$

     RDKit          3D

 37 37  0  0  0  0  0  0  0  0999 V2000
   -0.1622    0.5367   -2.6069 S   0  0  0  0  0  2  0  0  0  0  0  0
    0.5020    2.2285   -3.7811 Si  0  0  0  0  0  4  0  0  0  0  0  0
   -0.6862    2.8961   -4.2774 H   0  0  0  0  0  0  0  0  0  0  0  0
    1.2106    3.2038   -2.9044 H   0  0  0  0  0  0  0  0  0  0  0  0
   -2.2869    0.2883   -2.7640 Si  0  0  0  0  0  4  0  0  0  0  0  0
   -2.8545   -0.1772   -1.4949 H   0  0  0  0  0  0  0  0  0  0  0  0
   -2.9531    1.5633   -3.0991 H   0  0  0  0  0  0  0  0  0  0  0  0
   -2.7969   -1.2118   -4.3291 Si  0  0  0  0  0  4  0  0  0  0  0  0
   -2.2115   -0.5640   -6.3476 Si  0  0  0  0  0  4  0  0  0  0  0  0
    1.8885    2.9932   -7.1132 Si  0  0  0  0  0  4  0  0  0  0  0  0
    1.8711    1.5637   -5.3918 Si  0  0  0  0  0  4  0  0  0  0  0  0
    3.2064    1.3300   -4.8574 H   0  0  0  0  0  0  0  0  0  0  0  0
    1.3637    0.2581   -5.9009 H   0  0  0  0  0  0  0  0  0  0  0  0
   -3.8221    0.5524   -7.4037 Si  0  0  0  0  0  4  0  0  0  0  0  0
    1.5913    1.9346   -9.0227 Si  0  0  0  0  0  4  0  0  0  0  0  0
   -4.0137    2.6353   -6.6951 Si  0  0  0  0  0  4  0  0  0  0  0  0
   -0.5155    1.9160   -9.7130 Si  0  0  0  0  0  4  0  0  0  0  0  0
   -1.0030    0.2696   -6.3676 H   0  0  0  0  0  0  0  0  0  0  0  0
   -1.9099   -1.7686   -7.1614 H   0  0  0  0  0  0  0  0  0  0  0  0
   -3.6534    0.5065   -8.8639 H   0  0  0  0  0  0  0  0  0  0  0  0
   -5.0927   -0.1372   -7.1095 H   0  0  0  0  0  0  0  0  0  0  0  0
   -1.2289    0.6991   -9.2648 H   0  0  0  0  0  0  0  0  0  0  0  0
   -0.4698    1.7665  -11.1965 H   0  0  0  0  0  0  0  0  0  0  0  0
   -2.4503    4.0023   -7.3079 Si  0  0  0  0  0  4  0  0  0  0  0  0
   -1.3540    4.0034   -6.2990 H   0  0  0  0  0  0  0  0  0  0  0  0
   -2.9859    5.3876   -7.2440 H   0  0  0  0  0  0  0  0  0  0  0  0
   -1.6152    3.7594   -9.3098 Si  0  0  0  0  0  4  0  0  0  0  0  0
   -0.7179    4.9040   -9.5711 H   0  0  0  0  0  0  0  0  0  0  0  0
   -2.7161    3.8859  -10.3090 H   0  0  0  0  0  0  0  0  0  0  0  0
   -4.1091    2.6045   -5.2221 H   0  0  0  0  0  0  0  0  0  0  0  0
   -5.3375    3.1405   -7.1641 H   0  0  0  0  0  0  0  0  0  0  0  0
    2.5111    2.4620  -10.0715 H   0  0  0  0  0  0  0  0  0  0  0  0
    2.0071    0.5147   -8.8317 H   0  0  0  0  0  0  0  0  0  0  0  0
    0.9639    4.1063   -6.9107 H   0  0  0  0  0  0  0  0  0  0  0  0
    3.2515    3.6022   -7.1329 H   0  0  0  0  0  0  0  0  0  0  0  0
   -2.0580   -2.4622   -4.0067 H   0  0  0  0  0  0  0  0  0  0  0  0
   -4.2145   -1.5165   -4.2901 H   0  0  0  0  0  0  0  0  0  0  0  0
  1  2  1  0
  1  5  1  0
  2  3  1  0
  2  4  1  0
  2 11  1  0
  5  6  1  0
  5  7  1  0
  5  8  1  0
  8  9  1  0
  8 36  1  0
  8 37  1  0
  9 14  1  0
  9 18  1  0
  9 19  1  0
 10 11  1  0
 10 15  1  0
 10 34  1  0
 10 35  1  0
 11 12  1  0
 11 13  1  0
 14 16  1  0
 14 20  1  0
 14 21  1  0
 15 17  1  0
 15 32  1  0
 15 33  1  0
 16 24  1  0
 16 30  1  0
 16 31  1  0
 17 22  1  0
 17 23  1  0
 17 27  1  0
 24 25  1  0
 24 26  1  0
 24 27  1  0
 27 28  1  0
 27 29  1  0
M  CHG  1   1   1
M  RAD  1   1   2
M  END
$$$$

     RDKit          3D

 37 37  0  0  0  0  0  0  0  0999 V2000
   -0.1622    0.5367   -2.6069 S   0  0  0  0  0  2  0  0  0  0  0  0
   -1.0021   -0.1846   -4.4257 Si  0  0  0  0  0  4  0  0  0  0  0  0
   -2.4671    0.0579   -4.4902 H   0  0  0  0  0  0  0  0  0  0  0  0
   -0.7619   -1.6261   -4.6265 H   0  0  0  0  0  0  0  0  0  0  0  0
    1.3129    2.0668   -2.9614 Si  0  0  0  0  0  4  0  0  0  0  0  0
    0.7975    3.0764   -3.8757 H   0  0  0  0  0  0  0  0  0  0  0  0
    1.5708    2.7068   -1.6432 H   0  0  0  0  0  0  0  0  0  0  0  0
    3.2142    1.1528   -3.6499 Si  0  0  0  0  0  4  0  0  0  0  0  0
    4.5541    2.6281   -4.6307 Si  0  0  0  0  0  4  0  0  0  0  0  0
   -1.3774    2.6204   -6.7745 Si  0  0  0  0  0  4  0  0  0  0  0  0
   -0.0954    0.9180   -6.1455 Si  0  0  0  0  0  4  0  0  0  0  0  0
    0.1182    0.0309   -7.2885 H   0  0  0  0  0  0  0  0  0  0  0  0
    1.2070    1.4193   -5.7105 H   0  0  0  0  0  0  0  0  0  0  0  0
    3.6908    3.4463   -6.4929 Si  0  0  0  0  0  4  0  0  0  0  0  0
   -2.2375    2.2252   -8.7724 Si  0  0  0  0  0  4  0  0  0  0  0  0
    3.4896    1.9201   -8.0904 Si  0  0  0  0  0  4  0  0  0  0  0  0
   -1.4005    0.3867   -9.7100 Si  0  0  0  0  0  4  0  0  0  0  0  0
    5.8186    1.9699   -4.9430 H   0  0  0  0  0  0  0  0  0  0  0  0
    4.7966    3.7213   -3.6989 H   0  0  0  0  0  0  0  0  0  0  0  0
    4.4733    4.5935   -6.9384 H   0  0  0  0  0  0  0  0  0  0  0  0
    2.3281    3.9481   -6.1820 H   0  0  0  0  0  0  0  0  0  0  0  0
   -2.0995    0.1878  -10.9935 H   0  0  0  0  0  0  0  0  0  0  0  0
   -1.7510   -0.7609   -8.8582 H   0  0  0  0  0  0  0  0  0  0  0  0
    1.6806    2.3858   -9.3564 Si  0  0  0  0  0  4  0  0  0  0  0  0
    2.1908    3.2111  -10.4880 H   0  0  0  0  0  0  0  0  0  0  0  0
    0.7753    3.2365   -8.5977 H   0  0  0  0  0  0  0  0  0  0  0  0
    0.7602    0.5234  -10.0857 Si  0  0  0  0  0  4  0  0  0  0  0  0
    1.4244   -0.6336   -9.4239 H   0  0  0  0  0  0  0  0  0  0  0  0
    1.0658    0.3852  -11.5316 H   0  0  0  0  0  0  0  0  0  0  0  0
    4.6962    1.8263   -8.9258 H   0  0  0  0  0  0  0  0  0  0  0  0
    3.2589    0.5694   -7.5353 H   0  0  0  0  0  0  0  0  0  0  0  0
   -2.1104    3.3981   -9.6332 H   0  0  0  0  0  0  0  0  0  0  0  0
   -3.6981    1.9902   -8.5965 H   0  0  0  0  0  0  0  0  0  0  0  0
   -2.4314    2.7829   -5.7361 H   0  0  0  0  0  0  0  0  0  0  0  0
   -0.6281    3.9045   -6.7693 H   0  0  0  0  0  0  0  0  0  0  0  0
    3.9181    0.6291   -2.4617 H   0  0  0  0  0  0  0  0  0  0  0  0
    2.9348   -0.0054   -4.5131 H   0  0  0  0  0  0  0  0  0  0  0  0
  1  2  1  0
  1  5  1  0
  2  3  1  0
  2  4  1  0
  2 11  1  0
  5  6  1  0
  5  7  1  0
  5  8  1  0
  8  9  1  0
  8 36  1  0
  8 37  1  0
  9 14  1  0
  9 18  1  0
  9 19  1  0
 10 11  1  0
 10 15  1  0
 10 34  1  0
 10 35  1  0
 11 12  1  0
 11 13  1  0
 14 16  1  0
 14 20  1  0
 14 21  1  0
 15 17  1  0
 15 32  1  0
 15 33  1  0
 16 24  1  0
 16 30  1  0
 16 31  1  0
 17 22  1  0
 17 23  1  0
 17 27  1  0
 24 25  1  0
 24 26  1  0
 24 27  1  0
 27 28  1  0
 27 29  1  0
M  CHG  1   1   1
M  RAD  1   1   2
M  END
$$$$
