
     RDKit          3D

 37 37  0  0  0  0  0  0  0  0999 V2000
    0.0184   -0.0765    3.1515 S   0  0  0  0  0  2  0  0  0  0  0  0
    1.6488    1.1417    3.8391 Si  0  0  0  0  0  4  0  0  0  0  0  0
    2.7346    0.3019    4.3878 H   0  0  0  0  0  0  0  0  0  0  0  0
    2.1333    1.9105    2.6813 H   0  0  0  0  0  0  0  0  0  0  0  0
   -1.6849    0.1683    4.4263 Si  0  0  0  0  0  4  0  0  0  0  0  0
   -1.8755    1.5971    4.6754 H   0  0  0  0  0  0  0  0  0  0  0  0
   -2.8651   -0.4050    3.7624 H   0  0  0  0  0  0  0  0  0  0  0  0
   -1.3261   -0.8668    6.3772 Si  0  0  0  0  0  4  0  0  0  0  0  0
    0.3734   -2.2812    6.0993 Si  0  0  0  0  0  4  0  0  0  0  0  0
    2.3843    3.1039    6.8719 Si  0  0  0  0  0  4  0  0  0  0  0  0
    0.8621    2.5577    5.3596 Si  0  0  0  0  0  4  0  0  0  0  0  0
    0.3692    3.7603    4.6445 H   0  0  0  0  0  0  0  0  0  0  0  0
   -0.3063    1.9385    6.0280 H   0  0  0  0  0  0  0  0  0  0  0  0
    1.2804   -2.7995    8.0676 Si  0  0  0  0  0  4  0  0  0  0  0  0
    4.0510    1.6275    6.9534 Si  0  0  0  0  0  4  0  0  0  0  0  0
    1.8883   -0.9359    9.1686 Si  0  0  0  0  0  4  0  0  0  0  0  0
    5.3089    2.0809    8.7222 Si  0  0  0  0  0  4  0  0  0  0  0  0
   -0.1501   -3.5281    5.5128 H   0  0  0  0  0  0  0  0  0  0  0  0
    1.3894   -1.7607    5.1874 H   0  0  0  0  0  0  0  0  0  0  0  0
    0.3276   -3.5761    8.8509 H   0  0  0  0  0  0  0  0  0  0  0  0
    2.4475   -3.6591    7.8034 H   0  0  0  0  0  0  0  0  0  0  0  0
    6.7497    2.0539    8.3422 H   0  0  0  0  0  0  0  0  0  0  0  0
    5.0555    3.4796    9.1732 H   0  0  0  0  0  0  0  0  0  0  0  0
    3.9924   -1.1849    9.8171 Si  0  0  0  0  0  4  0  0  0  0  0  0
    4.7784   -1.8919    8.8017 H   0  0  0  0  0  0  0  0  0  0  0  0
    3.9836   -2.0673   11.0194 H   0  0  0  0  0  0  0  0  0  0  0  0
    4.9213    0.7381   10.4262 Si  0  0  0  0  0  4  0  0  0  0  0  0
    6.2277    0.4132   11.0635 H   0  0  0  0  0  0  0  0  0  0  0  0
    4.0927    1.3373   11.4707 H   0  0  0  0  0  0  0  0  0  0  0  0
    1.0465   -0.8052   10.3873 H   0  0  0  0  0  0  0  0  0  0  0  0
    1.6658    0.2447    8.3561 H   0  0  0  0  0  0  0  0  0  0  0  0
    4.8770    1.8376    5.7336 H   0  0  0  0  0  0  0  0  0  0  0  0
    3.5884    0.2509    6.9182 H   0  0  0  0  0  0  0  0  0  0  0  0
    1.7054    3.2335    8.1809 H   0  0  0  0  0  0  0  0  0  0  0  0
    2.9907    4.4223    6.5404 H   0  0  0  0  0  0  0  0  0  0  0  0
   -2.4933   -1.6494    6.7983 H   0  0  0  0  0  0  0  0  0  0  0  0
   -1.0218    0.1145    7.4268 H   0  0  0  0  0  0  0  0  0  0  0  0
  1  2  1  0
  1  5  1  0
  2  3  1  0
  2  4  1  0
  2 11  1  0
  5  6  1  0
  5  7  1  0
  5  8  1  0
  8  9  1  0
  8 36  1  0
  8 37  1  0
  9 14  1  0
  9 18  1  0
  9 19  1  0
 10 11  1  0
 10 15  1  0
 10 34  1  0
 10 35  1  0
 11 12  1  0
 11 13  1  0
 14 16  1  0
 14 20  1  0
 14 21  1  0
 15 17  1  0
 15 32  1  0
 15 33  1  0
 16 24  1  0
 16 30  1  0
 16 31  1  0
 17 22  1  0
 17 23  1  0
 17 27  1  0
 24 25  1  0
 24 26  1  0
 24 27  1  0
 27 28  1  0
 27 29  1  0
M  CHG  1   1   1
M  RAD  1   1   2
M  END
$$$$

     RDKit          3D

 37 37  0  0  0  0  0  0  0  0999 V2000
    0.0184   -0.0765    3.1515 S   0  0  0  0  0  2  0  0  0  0  0  0
    0.0037    1.9535    3.8542 Si  0  0  0  0  0  4  0  0  0  0  0  0
    1.3258    2.3284    4.3990 H   0  0  0  0  0  0  0  0  0  0  0  0
   -0.3358    2.8074    2.7044 H   0  0  0  0  0  0  0  0  0  0  0  0
   -1.1798   -1.3148    4.4233 Si  0  0  0  0  0  4  0  0  0  0  0  0
   -2.4433   -0.6255    4.6840 H   0  0  0  0  0  0  0  0  0  0  0  0
   -1.4187   -2.6006    3.7511 H   0  0  0  0  0  0  0  0  0  0  0  0
   -0.1229   -1.6519    6.3664 Si  0  0  0  0  0  4  0  0  0  0  0  0
    2.0213   -1.1157    6.0815 Si  0  0  0  0  0  4  0  0  0  0  0  0
   -1.1283    3.6844    6.9057 Si  0  0  0  0  0  4  0  0  0  0  0  0
   -1.5957    2.1451    5.3844 Si  0  0  0  0  0  4  0  0  0  0  0  0
   -2.8605    2.4640    4.6781 H   0  0  0  0  0  0  0  0  0  0  0  0
   -1.7838    0.8318    6.0440 H   0  0  0  0  0  0  0  0  0  0  0  0
    2.9856   -0.7053    8.0480 Si  0  0  0  0  0  4  0  0  0  0  0  0
    1.0483    4.1549    6.9797 Si  0  0  0  0  0  4  0  0  0  0  0  0
    1.8479    0.8787    9.1666 Si  0  0  0  0  0  4  0  0  0  0  0  0
    1.4356    5.4243    8.7559 Si  0  0  0  0  0  4  0  0  0  0  0  0
    2.7142   -2.2708    5.4829 H   0  0  0  0  0  0  0  0  0  0  0  0
    2.1977    0.0181    5.1770 H   0  0  0  0  0  0  0  0  0  0  0  0
    3.0525   -1.9387    8.8219 H   0  0  0  0  0  0  0  0  0  0  0  0
    4.3677   -0.2705    7.7800 H   0  0  0  0  0  0  0  0  0  0  0  0
    2.3074    6.5730    8.3799 H   0  0  0  0  0  0  0  0  0  0  0  0
    0.1601    6.0436    9.2181 H   0  0  0  0  0  0  0  0  0  0  0  0
    3.2962    2.4235    9.8191 Si  0  0  0  0  0  4  0  0  0  0  0  0
    4.3260    2.6468    8.8001 H   0  0  0  0  0  0  0  0  0  0  0  0
    4.0088    1.8857   11.0138 H   0  0  0  0  0  0  0  0  0  0  0  0
    2.2979    4.3051   10.4473 Si  0  0  0  0  0  4  0  0  0  0  0  0
    3.3357    5.1617   11.0857 H   0  0  0  0  0  0  0  0  0  0  0  0
    1.3301    3.9835   11.4944 H   0  0  0  0  0  0  0  0  0  0  0  0
    1.2509    0.2682   10.3839 H   0  0  0  0  0  0  0  0  0  0  0  0
    0.7602    1.4034    8.3635 H   0  0  0  0  0  0  0  0  0  0  0  0
    1.3612    4.9542    5.7641 H   0  0  0  0  0  0  0  0  0  0  0  0
    1.8847    2.9681    6.9314 H   0  0  0  0  0  0  0  0  0  0  0  0
   -1.6275    3.2038    8.2138 H   0  0  0  0  0  0  0  0  0  0  0  0
   -1.8345    4.9554    6.5872 H   0  0  0  0  0  0  0  0  0  0  0  0
   -0.1798   -3.0591    6.7774 H   0  0  0  0  0  0  0  0  0  0  0  0
   -0.7289   -0.8341    7.4252 H   0  0  0  0  0  0  0  0  0  0  0  0
  1  2  1  0
  1  5  1  0
  2  3  1  0
  2  4  1  0
  2 11  1  0
  5  6  1  0
  5  7  1  0
  5  8  1  0
  8  9  1  0
  8 36  1  0
  8 37  1  0
  9 14  1  0
  9 18  1  0
  9 19  1  0
 10 11  1  0
 10 15  1  0
 10 34  1  0
 10 35  1  0
 11 12  1  0
 11 13  1  0
 14 16  1  0
 14 20  1  0
 14 21  1  0
 15 17  1  0
 15 32  1  0
 15 33  1  0
 16 24  1  0
 16 30  1  0
 16 31  1  0
 17 22  1  0
 17 23  1  0
 17 27  1  0
 24 25  1  0
 24 26  1  0
 24 27  1  0
 27 28  1  0
 27 29  1  0
M  CHG  1   1   1
M  RAD  1   1   2
M  END
$$$$

     RDKit          3D

 37 37  0  0  0  0  0  0  0  0999 V2000
    0.0184   -0.0765    3.1515 S   0  0  0  0  0  2  0  0  0  0  0  0
   -1.7705   -1.0201    3.8757 Si  0  0  0  0  0  4  0  0  0  0  0  0
   -2.6984   -0.0182    4.4418 H   0  0  0  0  0  0  0  0  0  0  0  0
   -2.3935   -1.7037    2.7308 H   0  0  0  0  0  0  0  0  0  0  0  0
    1.6864   -0.5869    4.3940 Si  0  0  0  0  0  4  0  0  0  0  0  0
    1.6530   -2.0275    4.6455 H   0  0  0  0  0  0  0  0  0  0  0  0
    2.9291   -0.2086    3.7050 H   0  0  0  0  0  0  0  0  0  0  0  0
    1.5348    0.4942    6.3471 Si  0  0  0  0  0  4  0  0  0  0  0  0
    0.0758    2.1598    6.0963 Si  0  0  0  0  0  4  0  0  0  0  0  0
   -2.7474   -2.8376    6.9305 Si  0  0  0  0  0  4  0  0  0  0  0  0
   -1.1881   -2.5413    5.3867 Si  0  0  0  0  0  4  0  0  0  0  0  0
   -0.9063   -3.8075    4.6673 H   0  0  0  0  0  0  0  0  0  0  0  0
    0.0766   -2.1144    6.0296 H   0  0  0  0  0  0  0  0  0  0  0  0
   -0.6985    2.8175    8.0796 Si  0  0  0  0  0  4  0  0  0  0  0  0
   -4.1571   -1.1156    7.0381 Si  0  0  0  0  0  4  0  0  0  0  0  0
   -1.5721    1.0750    9.2001 Si  0  0  0  0  0  4  0  0  0  0  0  0
   -5.4357   -1.3619    8.8328 Si  0  0  0  0  0  4  0  0  0  0  0  0
    0.7785    3.3073    5.4945 H   0  0  0  0  0  0  0  0  0  0  0  0
   -1.0277    1.8060    5.2064 H   0  0  0  0  0  0  0  0  0  0  0  0
    0.3807    3.4341    8.8410 H   0  0  0  0  0  0  0  0  0  0  0  0
   -1.7196    3.8510    7.8344 H   0  0  0  0  0  0  0  0  0  0  0  0
   -6.8613   -1.1072    8.4806 H   0  0  0  0  0  0  0  0  0  0  0  0
   -5.3982   -2.7825    9.2847 H   0  0  0  0  0  0  0  0  0  0  0  0
   -3.5969    1.6551    9.8882 Si  0  0  0  0  0  4  0  0  0  0  0  0
   -4.2809    2.4767    8.8852 H   0  0  0  0  0  0  0  0  0  0  0  0
   -3.4246    2.5264   11.0863 H   0  0  0  0  0  0  0  0  0  0  0  0
   -4.8065   -0.0956   10.5232 Si  0  0  0  0  0  4  0  0  0  0  0  0
   -6.0320    0.4330   11.1844 H   0  0  0  0  0  0  0  0  0  0  0  0
   -4.0628   -0.8174   11.5541 H   0  0  0  0  0  0  0  0  0  0  0  0
   -0.7377    0.8139   10.4027 H   0  0  0  0  0  0  0  0  0  0  0  0
   -1.5556   -0.1268    8.3883 H   0  0  0  0  0  0  0  0  0  0  0  0
   -5.0300   -1.1933    5.8354 H   0  0  0  0  0  0  0  0  0  0  0  0
   -3.4830    0.1703    6.9880 H   0  0  0  0  0  0  0  0  0  0  0  0
   -2.0718   -3.0717    8.2266 H   0  0  0  0  0  0  0  0  0  0  0  0
   -3.5615   -4.0435    6.6163 H   0  0  0  0  0  0  0  0  0  0  0  0
    2.8194    1.0823    6.7422 H   0  0  0  0  0  0  0  0  0  0  0  0
    1.0997   -0.4253    7.4066 H   0  0  0  0  0  0  0  0  0  0  0  0
  1  2  1  0
  1  5  1  0
  2  3  1  0
  2  4  1  0
  2 11  1  0
  5  6  1  0
  5  7  1  0
  5  8  1  0
  8  9  1  0
  8 36  1  0
  8 37  1  0
  9 14  1  0
  9 18  1  0
  9 19  1  0
 10 11  1  0
 10 15  1  0
 10 34  1  0
 10 35  1  0
 11 12  1  0
 11 13  1  0
 14 16  1  0
 14 20  1  0
 14 21  1  0
 15 17  1  0
 15 32  1  0
 15 33  1  0
 16 24  1  0
 16 30  1  0
 16 31  1  0
 17 22  1  0
 17 23  1  0
 17 27  1  0
 24 25  1  0
 24 26  1  0
 24 27  1  0
 27 28  1  0
 27 29  1  0
M  CHG  1   1   1
M  RAD  1   1   2
M  END
$$$$

     RDKit          3D

 37 37  0  0  0  0  0  0  0  0999 V2000
    0.0184   -0.0765    3.1515 S   0  0  0  0  0  2  0  0  0  0  0  0
    0.0381   -1.4284    4.8197 Si  0  0  0  0  0  4  0  0  0  0  0  0
    0.7883   -2.6506    4.5083 H   0  0  0  0  0  0  0  0  0  0  0  0
    0.7255   -0.7450    5.9023 H   0  0  0  0  0  0  0  0  0  0  0  0
    1.4538    1.5065    3.4399 Si  0  0  0  0  0  4  0  0  0  0  0  0
    0.9449    2.6974    2.7239 H   0  0  0  0  0  0  0  0  0  0  0  0
    2.7681    1.1282    2.9345 H   0  0  0  0  0  0  0  0  0  0  0  0
    1.5819    2.0252    5.6141 Si  0  0  0  0  0  4  0  0  0  0  0  0
    3.2726    0.8860    6.5193 Si  0  0  0  0  0  4  0  0  0  0  0  0
   -2.1184   -3.7238    6.7365 Si  0  0  0  0  0  4  0  0  0  0  0  0
   -2.0236   -1.9049    5.5076 Si  0  0  0  0  0  4  0  0  0  0  0  0
   -2.8538   -2.1125    4.2942 H   0  0  0  0  0  0  0  0  0  0  0  0
   -2.6039   -0.7711    6.2352 H   0  0  0  0  0  0  0  0  0  0  0  0
    3.6052    1.3943    8.6316 Si  0  0  0  0  0  4  0  0  0  0  0  0
   -0.5306   -3.8369    8.2782 Si  0  0  0  0  0  4  0  0  0  0  0  0
    1.9426    2.5351    9.5425 Si  0  0  0  0  0  4  0  0  0  0  0  0
   -0.8348   -2.2709    9.8717 Si  0  0  0  0  0  4  0  0  0  0  0  0
    4.4963    1.2520    5.7514 H   0  0  0  0  0  0  0  0  0  0  0  0
    3.1043   -0.5646    6.3401 H   0  0  0  0  0  0  0  0  0  0  0  0
    3.8134    0.1330    9.3983 H   0  0  0  0  0  0  0  0  0  0  0  0
    4.8610    2.1718    8.8252 H   0  0  0  0  0  0  0  0  0  0  0  0
   -2.2833   -2.2337   10.1433 H   0  0  0  0  0  0  0  0  0  0  0  0
   -0.1130   -2.7600   11.0721 H   0  0  0  0  0  0  0  0  0  0  0  0
    0.6203    1.0555   10.6320 Si  0  0  0  0  0  4  0  0  0  0  0  0
   -0.5197    1.7812   11.2213 H   0  0  0  0  0  0  0  0  0  0  0  0
    1.4266    0.4538   11.6775 H   0  0  0  0  0  0  0  0  0  0  0  0
   -0.0365   -0.3860    9.0928 Si  0  0  0  0  0  4  0  0  0  0  0  0
   -1.0323    0.2500    8.2255 H   0  0  0  0  0  0  0  0  0  0  0  0
    1.1619   -0.7002    8.2621 H   0  0  0  0  0  0  0  0  0  0  0  0
    2.4390    3.5490   10.4751 H   0  0  0  0  0  0  0  0  0  0  0  0
    1.1249    3.2375    8.5278 H   0  0  0  0  0  0  0  0  0  0  0  0
    0.7924   -3.7006    7.6623 H   0  0  0  0  0  0  0  0  0  0  0  0
   -0.6186   -5.1337    8.9442 H   0  0  0  0  0  0  0  0  0  0  0  0
   -2.0335   -4.9155    5.8950 H   0  0  0  0  0  0  0  0  0  0  0  0
   -3.4242   -3.7688    7.4225 H   0  0  0  0  0  0  0  0  0  0  0  0
    0.3208    1.7734    6.2877 H   0  0  0  0  0  0  0  0  0  0  0  0
    1.9541    3.4675    5.6791 H   0  0  0  0  0  0  0  0  0  0  0  0
  1  2  1  0
  1  5  1  0
  2  3  1  0
  2  4  1  0
  2 11  1  0
  5  6  1  0
  5  7  1  0
  5  8  1  0
  8  9  1  0
  8 36  1  0
  8 37  1  0
  9 14  1  0
  9 18  1  0
  9 19  1  0
 10 11  1  0
 10 15  1  0
 10 34  1  0
 10 35  1  0
 11 12  1  0
 11 13  1  0
 14 16  1  0
 14 20  1  0
 14 21  1  0
 15 17  1  0
 15 32  1  0
 15 33  1  0
 16 24  1  0
 16 30  1  0
 16 31  1  0
 17 22  1  0
 17 23  1  0
 17 27  1  0
 24 25  1  0
 24 26  1  0
 24 27  1  0
 27 28  1  0
 27 29  1  0
M  CHG  1   1   1
M  RAD  1   1   2
M  END
$$$$

     RDKit          3D

 37 37  0  0  0  0  0  0  0  0999 V2000
    0.0184   -0.0765    3.1515 S   0  0  0  0  0  2  0  0  0  0  0  0
   -0.7778    1.8464    3.5649 Si  0  0  0  0  0  4  0  0  0  0  0  0
    0.1968    2.9224    3.4484 H   0  0  0  0  0  0  0  0  0  0  0  0
   -1.8378    2.1230    2.5537 H   0  0  0  0  0  0  0  0  0  0  0  0
    2.1042   -0.2131    3.7267 Si  0  0  0  0  0  4  0  0  0  0  0  0
    2.7447   -1.0300    2.6542 H   0  0  0  0  0  0  0  0  0  0  0  0
    2.7482    1.0908    3.6825 H   0  0  0  0  0  0  0  0  0  0  0  0
    2.3284   -1.2625    5.6514 Si  0  0  0  0  0  4  0  0  0  0  0  0
    3.4675   -0.1713    7.1690 Si  0  0  0  0  0  4  0  0  0  0  0  0
   -0.3721    1.6843    7.2261 Si  0  0  0  0  0  4  0  0  0  0  0  0
   -1.8145    1.9020    5.5627 Si  0  0  0  0  0  4  0  0  0  0  0  0
   -2.4664    3.2353    5.6635 H   0  0  0  0  0  0  0  0  0  0  0  0
   -2.8675    0.9054    5.5850 H   0  0  0  0  0  0  0  0  0  0  0  0
    4.8831    1.3157    6.3810 Si  0  0  0  0  0  4  0  0  0  0  0  0
   -0.9498    2.8371    9.0247 Si  0  0  0  0  0  4  0  0  0  0  0  0
    3.9040    3.2061    5.7506 Si  0  0  0  0  0  4  0  0  0  0  0  0
    0.5338    4.4552    9.4862 Si  0  0  0  0  0  4  0  0  0  0  0  0
    4.2378   -1.1543    7.9855 H   0  0  0  0  0  0  0  0  0  0  0  0
    2.5720    0.5119    8.1461 H   0  0  0  0  0  0  0  0  0  0  0  0
    5.7181    0.7418    5.3049 H   0  0  0  0  0  0  0  0  0  0  0  0
    5.8359    1.6665    7.4751 H   0  0  0  0  0  0  0  0  0  0  0  0
   -0.2282    5.5695   10.1065 H   0  0  0  0  0  0  0  0  0  0  0  0
    1.5442    3.9725   10.4181 H   0  0  0  0  0  0  0  0  0  0  0  0
    3.6192    4.6039    7.4729 Si  0  0  0  0  0  4  0  0  0  0  0  0
    4.4196    5.8188    7.2099 H   0  0  0  0  0  0  0  0  0  0  0  0
    4.0949    4.0278    8.7212 H   0  0  0  0  0  0  0  0  0  0  0  0
    1.4742    5.2448    7.6338 Si  0  0  0  0  0  4  0  0  0  0  0  0
    0.7471    4.6479    6.4782 H   0  0  0  0  0  0  0  0  0  0  0  0
    1.3325    6.6925    7.5112 H   0  0  0  0  0  0  0  0  0  0  0  0
    4.7660    3.8254    4.7106 H   0  0  0  0  0  0  0  0  0  0  0  0
    2.5969    2.9941    5.1365 H   0  0  0  0  0  0  0  0  0  0  0  0
   -2.2934    3.4098    8.9141 H   0  0  0  0  0  0  0  0  0  0  0  0
   -0.9579    1.9297   10.1931 H   0  0  0  0  0  0  0  0  0  0  0  0
   -0.1820    0.2473    7.5648 H   0  0  0  0  0  0  0  0  0  0  0  0
    0.9423    2.1670    6.7721 H   0  0  0  0  0  0  0  0  0  0  0  0
    0.9632   -1.5223    6.1955 H   0  0  0  0  0  0  0  0  0  0  0  0
    2.9164   -2.6176    5.4453 H   0  0  0  0  0  0  0  0  0  0  0  0
  1  2  1  0
  1  5  1  0
  2  3  1  0
  2  4  1  0
  2 11  1  0
  5  6  1  0
  5  7  1  0
  5  8  1  0
  8  9  1  0
  8 36  1  0
  8 37  1  0
  9 14  1  0
  9 18  1  0
  9 19  1  0
 10 11  1  0
 10 15  1  0
 10 34  1  0
 10 35  1  0
 11 12  1  0
 11 13  1  0
 14 16  1  0
 14 20  1  0
 14 21  1  0
 15 17  1  0
 15 32  1  0
 15 33  1  0
 16 24  1  0
 16 30  1  0
 16 31  1  0
 17 22  1  0
 17 23  1  0
 17 27  1  0
 24 25  1  0
 24 26  1  0
 24 27  1  0
 27 28  1  0
 27 29  1  0
M  CHG  1   1   1
M  RAD  1   1   2
M  END
$$$$
