
     RDKit          3D

 37 37  0  0  0  0  0  0  0  0999 V2000
   -0.0005    0.0095    3.1931 S   0  0  0  0  0  2  0  0  0  0  0  0
    0.8458   -0.8737    4.9312 Si  0  0  0  0  0  4  0  0  0  0  0  0
    2.3156   -0.7491    4.8376 H   0  0  0  0  0  0  0  0  0  0  0  0
    0.3183   -0.1569    6.1107 H   0  0  0  0  0  0  0  0  0  0  0  0
   -0.0398    2.1521    3.4060 Si  0  0  0  0  0  4  0  0  0  0  0  0
   -0.2186    2.8197    2.1152 H   0  0  0  0  0  0  0  0  0  0  0  0
   -1.1548    2.5433    4.3145 H   0  0  0  0  0  0  0  0  0  0  0  0
    1.8428    2.8681    4.4241 Si  0  0  0  0  0  4  0  0  0  0  0  0
    1.7893    2.2123    6.5098 Si  0  0  0  0  0  4  0  0  0  0  0  0
    0.1535   -3.4947    7.3589 Si  0  0  0  0  0  4  0  0  0  0  0  0
    0.2863   -3.0164    5.1552 Si  0  0  0  0  0  4  0  0  0  0  0  0
    1.3801   -3.8543    4.5982 H   0  0  0  0  0  0  0  0  0  0  0  0
   -0.9567   -3.3436    4.4716 H   0  0  0  0  0  0  0  0  0  0  0  0
    2.8385    3.5442    7.9231 Si  0  0  0  0  0  4  0  0  0  0  0  0
    0.0978   -1.5997    8.5146 Si  0  0  0  0  0  4  0  0  0  0  0  0
    2.6951    2.5755    9.9583 Si  0  0  0  0  0  4  0  0  0  0  0  0
    0.7084   -1.9002   10.6385 Si  0  0  0  0  0  4  0  0  0  0  0  0
    0.3758    2.0887    6.9616 H   0  0  0  0  0  0  0  0  0  0  0  0
    2.4305    0.8698    6.6070 H   0  0  0  0  0  0  0  0  0  0  0  0
    4.2881    3.5262    7.5797 H   0  0  0  0  0  0  0  0  0  0  0  0
    2.3136    4.8964    7.9451 H   0  0  0  0  0  0  0  0  0  0  0  0
    2.1550   -2.2486   10.6287 H   0  0  0  0  0  0  0  0  0  0  0  0
   -0.0964   -2.9018   11.3110 H   0  0  0  0  0  0  0  0  0  0  0  0
    0.6208    1.7620   10.2106 Si  0  0  0  0  0  4  0  0  0  0  0  0
   -0.2014    2.8844   10.7466 H   0  0  0  0  0  0  0  0  0  0  0  0
    0.0549    1.4129    8.9170 H   0  0  0  0  0  0  0  0  0  0  0  0
    0.5607    0.0980   11.6652 Si  0  0  0  0  0  4  0  0  0  0  0  0
   -0.7656    0.1411   12.3447 H   0  0  0  0  0  0  0  0  0  0  0  0
    1.5671    0.2394   12.7063 H   0  0  0  0  0  0  0  0  0  0  0  0
    3.6149    1.4212    9.9921 H   0  0  0  0  0  0  0  0  0  0  0  0
    3.0545    3.5016   11.0124 H   0  0  0  0  0  0  0  0  0  0  0  0
    1.1154   -0.6981    7.9116 H   0  0  0  0  0  0  0  0  0  0  0  0
   -1.2338   -1.0343    8.4835 H   0  0  0  0  0  0  0  0  0  0  0  0
    1.3091   -4.2989    7.7823 H   0  0  0  0  0  0  0  0  0  0  0  0
   -1.0502   -4.3048    7.5760 H   0  0  0  0  0  0  0  0  0  0  0  0
    2.9616    2.1879    3.7149 H   0  0  0  0  0  0  0  0  0  0  0  0
    2.0001    4.2941    4.2272 H   0  0  0  0  0  0  0  0  0  0  0  0
  1  2  1  0
  1  5  1  0
  2  3  1  0
  2  4  1  0
  2 11  1  0
  5  6  1  0
  5  7  1  0
  5  8  1  0
  8  9  1  0
  8 36  1  0
  8 37  1  0
  9 14  1  0
  9 18  1  0
  9 19  1  0
 10 11  1  0
 10 15  1  0
 10 34  1  0
 10 35  1  0
 11 12  1  0
 11 13  1  0
 14 16  1  0
 14 20  1  0
 14 21  1  0
 15 17  1  0
 15 32  1  0
 15 33  1  0
 16 24  1  0
 16 30  1  0
 16 31  1  0
 17 22  1  0
 17 23  1  0
 17 27  1  0
 24 25  1  0
 24 26  1  0
 24 27  1  0
 27 28  1  0
 27 29  1  0
M  CHG  1   1   1
M  RAD  1   1   2
M  END
$$$$

     RDKit          3D

 37 37  0  0  0  0  0  0  0  0999 V2000
   -0.0005    0.0095    3.1931 S   0  0  0  0  0  2  0  0  0  0  0  0
   -1.9106   -0.9547    3.3598 Si  0  0  0  0  0  4  0  0  0  0  0  0
   -2.8253   -0.4263    2.3623 H   0  0  0  0  0  0  0  0  0  0  0  0
   -1.6971   -2.3870    3.0415 H   0  0  0  0  0  0  0  0  0  0  0  0
    1.3245   -0.7130    4.7228 Si  0  0  0  0  0  4  0  0  0  0  0  0
    0.7862   -1.9304    5.3046 H   0  0  0  0  0  0  0  0  0  0  0  0
    2.6548   -1.0645    4.1489 H   0  0  0  0  0  0  0  0  0  0  0  0
    1.6205    0.8805    6.2733 Si  0  0  0  0  0  4  0  0  0  0  0  0
    0.9335    0.1774    8.2811 Si  0  0  0  0  0  4  0  0  0  0  0  0
   -2.4274   -2.6325    6.5104 Si  0  0  0  0  0  4  0  0  0  0  0  0
   -2.7355   -0.7295    5.4430 Si  0  0  0  0  0  4  0  0  0  0  0  0
   -4.1362   -0.3676    5.3103 H   0  0  0  0  0  0  0  0  0  0  0  0
   -2.0070    0.3958    6.0561 H   0  0  0  0  0  0  0  0  0  0  0  0
   -0.5156    1.6232    9.1875 Si  0  0  0  0  0  4  0  0  0  0  0  0
   -3.3466   -2.6895    8.5120 Si  0  0  0  0  0  4  0  0  0  0  0  0
   -1.4337    0.6567   10.9869 Si  0  0  0  0  0  4  0  0  0  0  0  0
   -5.1029   -1.3810    8.7209 Si  0  0  0  0  0  4  0  0  0  0  0  0
    2.0746    0.0753    9.2171 H   0  0  0  0  0  0  0  0  0  0  0  0
    0.3048   -1.1499    8.1779 H   0  0  0  0  0  0  0  0  0  0  0  0
    0.1989    2.8535    9.5396 H   0  0  0  0  0  0  0  0  0  0  0  0
   -1.5482    1.9162    8.1986 H   0  0  0  0  0  0  0  0  0  0  0  0
   -6.0531   -1.5172    7.6242 H   0  0  0  0  0  0  0  0  0  0  0  0
   -5.8300   -1.7755    9.9612 H   0  0  0  0  0  0  0  0  0  0  0  0
   -3.6162    1.0930   11.0136 Si  0  0  0  0  0  4  0  0  0  0  0  0
   -4.2911    0.3085   12.0607 H   0  0  0  0  0  0  0  0  0  0  0  0
   -3.7916    2.5139   11.3685 H   0  0  0  0  0  0  0  0  0  0  0  0
   -4.5139    0.7662    9.0069 Si  0  0  0  0  0  4  0  0  0  0  0  0
   -3.5641    1.1842    7.9784 H   0  0  0  0  0  0  0  0  0  0  0  0
   -5.7644    1.5578    8.9132 H   0  0  0  0  0  0  0  0  0  0  0  0
   -0.7828    1.1881   12.1906 H   0  0  0  0  0  0  0  0  0  0  0  0
   -1.1758   -0.7960   10.9590 H   0  0  0  0  0  0  0  0  0  0  0  0
   -2.3698   -2.3477    9.5647 H   0  0  0  0  0  0  0  0  0  0  0  0
   -3.7638   -4.0946    8.7862 H   0  0  0  0  0  0  0  0  0  0  0  0
   -2.8867   -3.7365    5.6367 H   0  0  0  0  0  0  0  0  0  0  0  0
   -0.9635   -2.8391    6.6727 H   0  0  0  0  0  0  0  0  0  0  0  0
    3.0363    1.2928    6.3119 H   0  0  0  0  0  0  0  0  0  0  0  0
    0.8536    2.0846    5.8795 H   0  0  0  0  0  0  0  0  0  0  0  0
  1  2  1  0
  1  5  1  0
  2  3  1  0
  2  4  1  0
  2 11  1  0
  5  6  1  0
  5  7  1  0
  5  8  1  0
  8  9  1  0
  8 36  1  0
  8 37  1  0
  9 14  1  0
  9 18  1  0
  9 19  1  0
 10 11  1  0
 10 15  1  0
 10 34  1  0
 10 35  1  0
 11 12  1  0
 11 13  1  0
 14 16  1  0
 14 20  1  0
 14 21  1  0
 15 17  1  0
 15 32  1  0
 15 33  1  0
 16 24  1  0
 16 30  1  0
 16 31  1  0
 17 22  1  0
 17 23  1  0
 17 27  1  0
 24 25  1  0
 24 26  1  0
 24 27  1  0
 27 28  1  0
 27 29  1  0
M  CHG  1   1   1
M  RAD  1   1   2
M  END
$$$$

     RDKit          3D

 37 37  0  0  0  0  0  0  0  0999 V2000
   -0.0005    0.0095    3.1931 S   0  0  0  0  0  2  0  0  0  0  0  0
    0.5886    1.5394    4.5402 Si  0  0  0  0  0  4  0  0  0  0  0  0
   -0.4237    2.5780    4.6836 H   0  0  0  0  0  0  0  0  0  0  0  0
    1.8385    2.2178    4.0943 H   0  0  0  0  0  0  0  0  0  0  0  0
    0.6566   -1.9238    3.7816 Si  0  0  0  0  0  4  0  0  0  0  0  0
    1.5803   -1.9138    4.9017 H   0  0  0  0  0  0  0  0  0  0  0  0
    1.3889   -2.5181    2.6266 H   0  0  0  0  0  0  0  0  0  0  0  0
   -1.0388   -3.2769    4.2811 Si  0  0  0  0  0  4  0  0  0  0  0  0
   -1.5092   -3.2489    6.4575 Si  0  0  0  0  0  4  0  0  0  0  0  0
    2.2305    2.1081    7.7853 Si  0  0  0  0  0  4  0  0  0  0  0  0
    0.9965    0.6794    6.5511 Si  0  0  0  0  0  4  0  0  0  0  0  0
    1.8763   -0.5015    6.3437 H   0  0  0  0  0  0  0  0  0  0  0  0
   -0.2044    0.2700    7.2514 H   0  0  0  0  0  0  0  0  0  0  0  0
   -0.0498   -4.3879    7.6568 Si  0  0  0  0  0  4  0  0  0  0  0  0
    4.2574    2.1492    6.8081 Si  0  0  0  0  0  4  0  0  0  0  0  0
    1.4038   -3.0537    8.7125 Si  0  0  0  0  0  4  0  0  0  0  0  0
    4.7775    0.0214    6.3159 Si  0  0  0  0  0  4  0  0  0  0  0  0
   -1.6781   -1.8696    6.9387 H   0  0  0  0  0  0  0  0  0  0  0  0
   -2.8428   -3.8986    6.6156 H   0  0  0  0  0  0  0  0  0  0  0  0
    0.7145   -5.3577    6.8679 H   0  0  0  0  0  0  0  0  0  0  0  0
   -0.7600   -5.1592    8.7164 H   0  0  0  0  0  0  0  0  0  0  0  0
    6.1592    0.0417    5.7800 H   0  0  0  0  0  0  0  0  0  0  0  0
    3.8922   -0.3995    5.2227 H   0  0  0  0  0  0  0  0  0  0  0  0
    3.3902   -3.1190    7.6652 Si  0  0  0  0  0  4  0  0  0  0  0  0
    3.0979   -3.2444    6.2219 H   0  0  0  0  0  0  0  0  0  0  0  0
    4.0711   -4.3464    8.0782 H   0  0  0  0  0  0  0  0  0  0  0  0
    4.5858   -1.2945    8.0890 Si  0  0  0  0  0  4  0  0  0  0  0  0
    4.0404   -0.5180    9.2088 H   0  0  0  0  0  0  0  0  0  0  0  0
    5.9579   -1.7468    8.4567 H   0  0  0  0  0  0  0  0  0  0  0  0
    0.9001   -1.6984    8.8373 H   0  0  0  0  0  0  0  0  0  0  0  0
    1.6562   -3.5476   10.0967 H   0  0  0  0  0  0  0  0  0  0  0  0
    5.2558    2.7596    7.6608 H   0  0  0  0  0  0  0  0  0  0  0  0
    4.0908    2.8849    5.5396 H   0  0  0  0  0  0  0  0  0  0  0  0
    2.4132    1.4885    9.1027 H   0  0  0  0  0  0  0  0  0  0  0  0
    1.6294    3.4246    7.8379 H   0  0  0  0  0  0  0  0  0  0  0  0
   -2.2383   -2.7556    3.5714 H   0  0  0  0  0  0  0  0  0  0  0  0
   -0.7597   -4.6329    3.8486 H   0  0  0  0  0  0  0  0  0  0  0  0
  1  2  1  0
  1  5  1  0
  2  3  1  0
  2  4  1  0
  2 11  1  0
  5  6  1  0
  5  7  1  0
  5  8  1  0
  8  9  1  0
  8 36  1  0
  8 37  1  0
  9 14  1  0
  9 18  1  0
  9 19  1  0
 10 11  1  0
 10 15  1  0
 10 34  1  0
 10 35  1  0
 11 12  1  0
 11 13  1  0
 14 16  1  0
 14 20  1  0
 14 21  1  0
 15 17  1  0
 15 32  1  0
 15 33  1  0
 16 24  1  0
 16 30  1  0
 16 31  1  0
 17 22  1  0
 17 23  1  0
 17 27  1  0
 24 25  1  0
 24 26  1  0
 24 27  1  0
 27 28  1  0
 27 29  1  0
M  CHG  1   1   1
M  RAD  1   1   2
M  END
$$$$

     RDKit          3D

 37 37  0  0  0  0  0  0  0  0999 V2000
   -0.0005    0.0095    3.1931 S   0  0  0  0  0  2  0  0  0  0  0  0
    0.6763   -1.0087    4.9316 Si  0  0  0  0  0  4  0  0  0  0  0  0
    2.1452   -1.1447    4.8388 H   0  0  0  0  0  0  0  0  0  0  0  0
    0.2825   -0.2103    6.1109 H   0  0  0  0  0  0  0  0  0  0  0  0
    0.3376    2.1256    3.4061 Si  0  0  0  0  0  4  0  0  0  0  0  0
    0.2797    2.8142    2.1152 H   0  0  0  0  0  0  0  0  0  0  0  0
   -0.6916    2.7069    4.3141 H   0  0  0  0  0  0  0  0  0  0  0  0
    2.3164    2.4993    4.4252 Si  0  0  0  0  0  4  0  0  0  0  0  0
    2.1471    1.8632    6.5108 Si  0  0  0  0  0  4  0  0  0  0  0  0
   -0.4676   -3.4670    7.3588 Si  0  0  0  0  0  4  0  0  0  0  0  0
   -0.2516   -3.0195    5.1552 Si  0  0  0  0  0  4  0  0  0  0  0  0
    0.6781   -4.0369    4.5987 H   0  0  0  0  0  0  0  0  0  0  0  0
   -1.5324   -3.1230    4.4710 H   0  0  0  0  0  0  0  0  0  0  0  0
    3.4136    2.9898    7.9247 Si  0  0  0  0  0  4  0  0  0  0  0  0
   -0.1896   -1.5917    8.5145 Si  0  0  0  0  0  4  0  0  0  0  0  0
    3.1010    2.0615    9.9598 Si  0  0  0  0  0  4  0  0  0  0  0  0
    0.3575   -1.9949   10.6388 Si  0  0  0  0  0  4  0  0  0  0  0  0
    0.7338    1.9902    6.9619 H   0  0  0  0  0  0  0  0  0  0  0  0
    2.5421    0.4289    6.6083 H   0  0  0  0  0  0  0  0  0  0  0  0
    4.8376    2.7170    7.5821 H   0  0  0  0  0  0  0  0  0  0  0  0
    3.1348    4.4133    7.9466 H   0  0  0  0  0  0  0  0  0  0  0  0
    1.7202   -2.5923   10.6297 H   0  0  0  0  0  0  0  0  0  0  0  0
   -0.6113   -2.8392   11.3108 H   0  0  0  0  0  0  0  0  0  0  0  0
    0.9157    1.6256   10.2110 Si  0  0  0  0  0  4  0  0  0  0  0  0
    0.3035    2.8752   10.7467 H   0  0  0  0  0  0  0  0  0  0  0  0
    0.2979    1.3815    8.9171 H   0  0  0  0  0  0  0  0  0  0  0  0
    0.5631   -0.0018   11.6655 Si  0  0  0  0  0  4  0  0  0  0  0  0
   -0.7353    0.2740   12.3443 H   0  0  0  0  0  0  0  0  0  0  0  0
    1.5781   -0.0396   12.7071 H   0  0  0  0  0  0  0  0  0  0  0  0
    3.8033    0.7635    9.9940 H   0  0  0  0  0  0  0  0  0  0  0  0
    3.6172    2.9100   11.0142 H   0  0  0  0  0  0  0  0  0  0  0  0
    0.9711   -0.8832    7.9121 H   0  0  0  0  0  0  0  0  0  0  0  0
   -1.4010   -0.8009    8.4828 H   0  0  0  0  0  0  0  0  0  0  0  0
    0.5283   -4.4619    7.7828 H   0  0  0  0  0  0  0  0  0  0  0  0
   -1.7951   -4.0526    7.5752 H   0  0  0  0  0  0  0  0  0  0  0  0
    3.2983    1.6328    3.7166 H   0  0  0  0  0  0  0  0  0  0  0  0
    2.7222    3.8754    4.2285 H   0  0  0  0  0  0  0  0  0  0  0  0
  1  2  1  0
  1  5  1  0
  2  3  1  0
  2  4  1  0
  2 11  1  0
  5  6  1  0
  5  7  1  0
  5  8  1  0
  8  9  1  0
  8 36  1  0
  8 37  1  0
  9 14  1  0
  9 18  1  0
  9 19  1  0
 10 11  1  0
 10 15  1  0
 10 34  1  0
 10 35  1  0
 11 12  1  0
 11 13  1  0
 14 16  1  0
 14 20  1  0
 14 21  1  0
 15 17  1  0
 15 32  1  0
 15 33  1  0
 16 24  1  0
 16 30  1  0
 16 31  1  0
 17 22  1  0
 17 23  1  0
 17 27  1  0
 24 25  1  0
 24 26  1  0
 24 27  1  0
 27 28  1  0
 27 29  1  0
M  CHG  1   1   1
M  RAD  1   1   2
M  END
$$$$

     RDKit          3D

 37 37  0  0  0  0  0  0  0  0999 V2000
   -0.0005    0.0095    3.1931 S   0  0  0  0  0  2  0  0  0  0  0  0
   -2.0505   -0.6036    3.3587 Si  0  0  0  0  0  4  0  0  0  0  0  0
   -2.8575    0.0775    2.3608 H   0  0  0  0  0  0  0  0  0  0  0  0
   -2.0921   -2.0512    3.0405 H   0  0  0  0  0  0  0  0  0  0  0  0
    1.1759   -0.9348    4.7235 Si  0  0  0  0  0  4  0  0  0  0  0  0
    0.4315   -2.0385    5.3049 H   0  0  0  0  0  0  0  0  0  0  0  0
    2.4239   -1.5149    4.1502 H   0  0  0  0  0  0  0  0  0  0  0  0
    1.7469    0.5819    6.2742 Si  0  0  0  0  0  4  0  0  0  0  0  0
    0.9458    0.0106    8.2816 Si  0  0  0  0  0  4  0  0  0  0  0  0
   -2.8560   -2.1642    6.5090 Si  0  0  0  0  0  4  0  0  0  0  0  0
   -2.8240   -0.2367    5.4416 Si  0  0  0  0  0  4  0  0  0  0  0  0
   -4.1392    0.3659    5.3081 H   0  0  0  0  0  0  0  0  0  0  0  0
   -1.9092    0.7429    6.0550 H   0  0  0  0  0  0  0  0  0  0  0  0
   -0.2268    1.6888    9.1874 Si  0  0  0  0  0  4  0  0  0  0  0  0
   -3.7720   -2.0585    8.5101 Si  0  0  0  0  0  4  0  0  0  0  0  0
   -1.3015    0.8991   10.9862 Si  0  0  0  0  0  4  0  0  0  0  0  0
   -5.2708   -0.4614    8.7181 Si  0  0  0  0  0  4  0  0  0  0  0  0
    2.0506   -0.2906    9.2181 H   0  0  0  0  0  0  0  0  0  0  0  0
    0.0934   -1.1853    8.1780 H   0  0  0  0  0  0  0  0  0  0  0  0
    0.6928    2.7744    9.5398 H   0  0  0  0  0  0  0  0  0  0  0  0
   -1.1912    2.1589    8.1979 H   0  0  0  0  0  0  0  0  0  0  0  0
   -6.2296   -0.4284    7.6210 H   0  0  0  0  0  0  0  0  0  0  0  0
   -6.0566   -0.7219    9.9580 H   0  0  0  0  0  0  0  0  0  0  0  0
   -3.3733    1.7125   11.0117 Si  0  0  0  0  0  4  0  0  0  0  0  0
   -4.1762    1.0590   12.0585 H   0  0  0  0  0  0  0  0  0  0  0  0
   -3.2962    3.1422   11.3667 H   0  0  0  0  0  0  0  0  0  0  0  0
   -4.3135    1.5487    9.0046 Si  0  0  0  0  0  4  0  0  0  0  0  0
   -3.3043    1.7930    7.9766 H   0  0  0  0  0  0  0  0  0  0  0  0
   -5.4051    2.5479    8.9102 H   0  0  0  0  0  0  0  0  0  0  0  0
   -0.5679    1.3077   12.1902 H   0  0  0  0  0  0  0  0  0  0  0  0
   -1.3032   -0.5764   10.9584 H   0  0  0  0  0  0  0  0  0  0  0  0
   -2.7509   -1.8939    9.5634 H   0  0  0  0  0  0  0  0  0  0  0  0
   -4.4300   -3.3683    8.7840 H   0  0  0  0  0  0  0  0  0  0  0  0
   -3.5019   -3.1703    5.6350 H   0  0  0  0  0  0  0  0  0  0  0  0
   -1.4515   -2.6251    6.6721 H   0  0  0  0  0  0  0  0  0  0  0  0
    3.2131    0.7387    6.3135 H   0  0  0  0  0  0  0  0  0  0  0  0
    1.2039    1.9021    5.8800 H   0  0  0  0  0  0  0  0  0  0  0  0
  1  2  1  0
  1  5  1  0
  2  3  1  0
  2  4  1  0
  2 11  1  0
  5  6  1  0
  5  7  1  0
  5  8  1  0
  8  9  1  0
  8 36  1  0
  8 37  1  0
  9 14  1  0
  9 18  1  0
  9 19  1  0
 10 11  1  0
 10 15  1  0
 10 34  1  0
 10 35  1  0
 11 12  1  0
 11 13  1  0
 14 16  1  0
 14 20  1  0
 14 21  1  0
 15 17  1  0
 15 32  1  0
 15 33  1  0
 16 24  1  0
 16 30  1  0
 16 31  1  0
 17 22  1  0
 17 23  1  0
 17 27  1  0
 24 25  1  0
 24 26  1  0
 24 27  1  0
 27 28  1  0
 27 29  1  0
M  CHG  1   1   1
M  RAD  1   1   2
M  END
$$$$

     RDKit          3D

 37 37  0  0  0  0  0  0  0  0999 V2000
   -0.0005    0.0095    3.1931 S   0  0  0  0  0  2  0  0  0  0  0  0
    0.2853   -2.0649    2.8491 Si  0  0  0  0  0  4  0  0  0  0  0  0
    1.7240   -2.3847    3.0644 H   0  0  0  0  0  0  0  0  0  0  0  0
    0.0321   -2.3864    1.4164 H   0  0  0  0  0  0  0  0  0  0  0  0
    1.1157    0.6445    4.9386 Si  0  0  0  0  0  4  0  0  0  0  0  0
    0.1386    1.3072    5.8274 H   0  0  0  0  0  0  0  0  0  0  0  0
    2.1314    1.6232    4.5518 H   0  0  0  0  0  0  0  0  0  0  0  0
    1.9948   -1.1346    5.9028 Si  0  0  0  0  0  4  0  0  0  0  0  0
    3.7505   -0.6071    7.1964 Si  0  0  0  0  0  4  0  0  0  0  0  0
   -2.0843   -2.2087    5.6721 Si  0  0  0  0  0  4  0  0  0  0  0  0
   -1.0408   -3.3387    4.0830 Si  0  0  0  0  0  4  0  0  0  0  0  0
   -2.0801   -3.9892    3.2361 H   0  0  0  0  0  0  0  0  0  0  0  0
   -0.2253   -4.4197    4.6665 H   0  0  0  0  0  0  0  0  0  0  0  0
    3.8963   -2.1865    8.7810 Si  0  0  0  0  0  4  0  0  0  0  0  0
   -2.6827   -3.5442    7.3796 Si  0  0  0  0  0  4  0  0  0  0  0  0
    2.5670   -3.9179    8.3119 Si  0  0  0  0  0  4  0  0  0  0  0  0
   -1.4441   -5.3735    7.4556 Si  0  0  0  0  0  4  0  0  0  0  0  0
    4.9445   -0.6443    6.3187 H   0  0  0  0  0  0  0  0  0  0  0  0
    3.5883    0.7208    7.7683 H   0  0  0  0  0  0  0  0  0  0  0  0
    3.5056   -1.5419   10.0551 H   0  0  0  0  0  0  0  0  0  0  0  0
    5.2999   -2.6024    8.8753 H   0  0  0  0  0  0  0  0  0  0  0  0
   -2.2834   -6.5666    7.2008 H   0  0  0  0  0  0  0  0  0  0  0  0
   -0.3756   -5.3914    6.4540 H   0  0  0  0  0  0  0  0  0  0  0  0
    0.9726   -4.0143    9.8698 Si  0  0  0  0  0  4  0  0  0  0  0  0
    1.6275   -4.3084   11.1528 H   0  0  0  0  0  0  0  0  0  0  0  0
    0.3233   -2.7015    9.9216 H   0  0  0  0  0  0  0  0  0  0  0  0
   -0.4796   -5.6487    9.4590 Si  0  0  0  0  0  4  0  0  0  0  0  0
    0.2878   -6.9132    9.3881 H   0  0  0  0  0  0  0  0  0  0  0  0
   -1.4493   -5.6968   10.5357 H   0  0  0  0  0  0  0  0  0  0  0  0
    3.3716   -5.1593    8.2811 H   0  0  0  0  0  0  0  0  0  0  0  0
    1.9719   -3.7211    6.9779 H   0  0  0  0  0  0  0  0  0  0  0  0
   -4.1140   -3.8929    7.1955 H   0  0  0  0  0  0  0  0  0  0  0  0
   -2.6095   -2.7899    8.6442 H   0  0  0  0  0  0  0  0  0  0  0  0
   -3.2970   -1.5995    5.0773 H   0  0  0  0  0  0  0  0  0  0  0  0
   -1.2893   -1.1167    6.2259 H   0  0  0  0  0  0  0  0  0  0  0  0
    0.9893   -1.7504    6.7817 H   0  0  0  0  0  0  0  0  0  0  0  0
    2.4393   -2.1544    4.9616 H   0  0  0  0  0  0  0  0  0  0  0  0
  1  2  1  0
  1  5  1  0
  2  3  1  0
  2  4  1  0
  2 11  1  0
  5  6  1  0
  5  7  1  0
  5  8  1  0
  8  9  1  0
  8 36  1  0
  8 37  1  0
  9 14  1  0
  9 18  1  0
  9 19  1  0
 10 11  1  0
 10 15  1  0
 10 34  1  0
 10 35  1  0
 11 12  1  0
 11 13  1  0
 14 16  1  0
 14 20  1  0
 14 21  1  0
 15 17  1  0
 15 32  1  0
 15 33  1  0
 16 24  1  0
 16 30  1  0
 16 31  1  0
 17 22  1  0
 17 23  1  0
 17 27  1  0
 24 25  1  0
 24 26  1  0
 24 27  1  0
 27 28  1  0
 27 29  1  0
M  CHG  1   1   1
M  RAD  1   1   2
M  END
$$$$

     RDKit          3D

 37 37  0  0  0  0  0  0  0  0999 V2000
   -0.0005    0.0095    3.1931 S   0  0  0  0  0  2  0  0  0  0  0  0
    0.8479    1.4119    4.5406 Si  0  0  0  0  0  4  0  0  0  0  0  0
    0.0340    2.6125    4.6835 H   0  0  0  0  0  0  0  0  0  0  0  0
    2.1978    1.8599    4.0954 H   0  0  0  0  0  0  0  0  0  0  0  0
    0.3059   -2.0092    3.7818 Si  0  0  0  0  0  4  0  0  0  0  0  0
    1.2164   -2.1618    4.9025 H   0  0  0  0  0  0  0  0  0  0  0  0
    0.9228   -2.7232    2.6272 H   0  0  0  0  0  0  0  0  0  0  0  0
   -1.6014   -3.0429    4.2803 Si  0  0  0  0  0  4  0  0  0  0  0  0
   -2.0606   -2.9325    6.4566 Si  0  0  0  0  0  4  0  0  0  0  0  0
    2.5625    1.6831    7.7866 Si  0  0  0  0  0  4  0  0  0  0  0  0
    1.0970    0.4937    6.5517 Si  0  0  0  0  0  4  0  0  0  0  0  0
    1.7555   -0.8236    6.3446 H   0  0  0  0  0  0  0  0  0  0  0  0
   -0.1575    0.3020    7.2513 H   0  0  0  0  0  0  0  0  0  0  0  0
   -0.8250   -4.3104    7.6566 Si  0  0  0  0  0  4  0  0  0  0  0  0
    4.5656    1.3669    6.8105 Si  0  0  0  0  0  4  0  0  0  0  0  0
    0.8402   -3.2528    8.7130 Si  0  0  0  0  0  4  0  0  0  0  0  0
    4.7034   -0.8192    6.3184 Si  0  0  0  0  0  4  0  0  0  0  0  0
   -1.9845   -1.5450    6.9377 H   0  0  0  0  0  0  0  0  0  0  0  0
   -3.4878   -3.3374    6.6139 H   0  0  0  0  0  0  0  0  0  0  0  0
   -0.2428   -5.3996    6.8679 H   0  0  0  0  0  0  0  0  0  0  0  0
   -1.6603   -4.9448    8.7157 H   0  0  0  0  0  0  0  0  0  0  0  0
    6.0675   -1.0423    5.7832 H   0  0  0  0  0  0  0  0  0  0  0  0
    3.7584   -1.0779    5.2247 H   0  0  0  0  0  0  0  0  0  0  0  0
    2.7846   -3.6666    7.6668 Si  0  0  0  0  0  4  0  0  0  0  0  0
    2.4756   -3.7387    6.2233 H   0  0  0  0  0  0  0  0  0  0  0  0
    3.2387   -4.9945    8.0801 H   0  0  0  0  0  0  0  0  0  0  0  0
    4.2823   -2.0808    8.0913 Si  0  0  0  0  0  4  0  0  0  0  0  0
    3.8814   -1.2205    9.2109 H   0  0  0  0  0  0  0  0  0  0  0  0
    5.5533   -2.7674    8.4597 H   0  0  0  0  0  0  0  0  0  0  0  0
    0.5826   -1.8300    8.8377 H   0  0  0  0  0  0  0  0  0  0  0  0
    1.0009   -3.7833   10.0974 H   0  0  0  0  0  0  0  0  0  0  0  0
    5.6553    1.7922    7.6637 H   0  0  0  0  0  0  0  0  0  0  0  0
    4.5316    2.1204    5.5418 H   0  0  0  0  0  0  0  0  0  0  0  0
    2.6326    1.0410    9.1040 H   0  0  0  0  0  0  0  0  0  0  0  0
    2.2024    3.0848    7.8389 H   0  0  0  0  0  0  0  0  0  0  0  0
   -2.6900   -2.3188    3.5701 H   0  0  0  0  0  0  0  0  0  0  0  0
   -1.5649   -4.4269    3.8480 H   0  0  0  0  0  0  0  0  0  0  0  0
  1  2  1  0
  1  5  1  0
  2  3  1  0
  2  4  1  0
  2 11  1  0
  5  6  1  0
  5  7  1  0
  5  8  1  0
  8  9  1  0
  8 36  1  0
  8 37  1  0
  9 14  1  0
  9 18  1  0
  9 19  1  0
 10 11  1  0
 10 15  1  0
 10 34  1  0
 10 35  1  0
 11 12  1  0
 11 13  1  0
 14 16  1  0
 14 20  1  0
 14 21  1  0
 15 17  1  0
 15 32  1  0
 15 33  1  0
 16 24  1  0
 16 30  1  0
 16 31  1  0
 17 22  1  0
 17 23  1  0
 17 27  1  0
 24 25  1  0
 24 26  1  0
 24 27  1  0
 27 28  1  0
 27 29  1  0
M  CHG  1   1   1
M  RAD  1   1   2
M  END
$$$$
