
     RDKit          3D

 37 37  0  0  0  0  0  0  0  0999 V2000
    0.3854   -1.2545    2.8771 S   0  0  0  0  0  2  0  0  0  0  0  0
    0.5541    0.6093    3.9352 Si  0  0  0  0  0  4  0  0  0  0  0  0
   -0.7455    1.0024    4.4840 H   0  0  0  0  0  0  0  0  0  0  0  0
    0.8992    1.6394    2.9131 H   0  0  0  0  0  0  0  0  0  0  0  0
    0.1152   -2.8980    4.2068 Si  0  0  0  0  0  4  0  0  0  0  0  0
   -0.9039   -3.8429    3.7399 H   0  0  0  0  0  0  0  0  0  0  0  0
    1.3982   -3.6569    4.2346 H   0  0  0  0  0  0  0  0  0  0  0  0
   -0.2797   -2.1399    6.2370 Si  0  0  0  0  0  4  0  0  0  0  0  0
   -1.5255   -3.4850    7.4593 Si  0  0  0  0  0  4  0  0  0  0  0  0
    1.5111    1.3267    7.4243 Si  0  0  0  0  0  4  0  0  0  0  0  0
    2.1634    0.5580    5.4503 Si  0  0  0  0  0  4  0  0  0  0  0  0
    3.3225    1.3891    5.0121 H   0  0  0  0  0  0  0  0  0  0  0  0
    2.6777   -0.8232    5.5296 H   0  0  0  0  0  0  0  0  0  0  0  0
   -0.4087   -4.0343    9.3407 Si  0  0  0  0  0  4  0  0  0  0  0  0
    3.2342    1.8177    8.7198 Si  0  0  0  0  0  4  0  0  0  0  0  0
    1.7707   -4.0630    8.9060 Si  0  0  0  0  0  4  0  0  0  0  0  0
    4.9456    0.4721    8.4542 Si  0  0  0  0  0  4  0  0  0  0  0  0
   -2.0031   -4.6598    6.7601 H   0  0  0  0  0  0  0  0  0  0  0  0
   -2.7270   -2.7301    7.9157 H   0  0  0  0  0  0  0  0  0  0  0  0
   -0.9033   -5.3200    9.8306 H   0  0  0  0  0  0  0  0  0  0  0  0
   -0.6442   -3.0278   10.3893 H   0  0  0  0  0  0  0  0  0  0  0  0
    5.9055    0.6894    9.5519 H   0  0  0  0  0  0  0  0  0  0  0  0
    5.6662    0.8399    7.2057 H   0  0  0  0  0  0  0  0  0  0  0  0
    2.7901   -2.2379    9.7259 Si  0  0  0  0  0  4  0  0  0  0  0  0
    1.8537   -1.1679   10.0030 H   0  0  0  0  0  0  0  0  0  0  0  0
    3.3843   -2.6478   11.0265 H   0  0  0  0  0  0  0  0  0  0  0  0
    4.4255   -1.6599    8.3606 Si  0  0  0  0  0  4  0  0  0  0  0  0
    4.0706   -2.1169    6.9965 H   0  0  0  0  0  0  0  0  0  0  0  0
    5.6328   -2.4518    8.7359 H   0  0  0  0  0  0  0  0  0  0  0  0
    2.3498   -5.2933    9.4747 H   0  0  0  0  0  0  0  0  0  0  0  0
    1.9731   -4.0527    7.4538 H   0  0  0  0  0  0  0  0  0  0  0  0
    2.7604    1.8275   10.1316 H   0  0  0  0  0  0  0  0  0  0  0  0
    3.6514    3.2016    8.4279 H   0  0  0  0  0  0  0  0  0  0  0  0
    0.6550    0.3817    8.1495 H   0  0  0  0  0  0  0  0  0  0  0  0
    0.6722    2.5355    7.1801 H   0  0  0  0  0  0  0  0  0  0  0  0
   -0.8977   -0.7895    6.1181 H   0  0  0  0  0  0  0  0  0  0  0  0
    1.0321   -1.9015    6.9039 H   0  0  0  0  0  0  0  0  0  0  0  0
  1  2  1  0
  1  5  1  0
  2  3  1  0
  2  4  1  0
  2 11  1  0
  5  6  1  0
  5  7  1  0
  5  8  1  0
  8  9  1  0
  8 36  1  0
  8 37  1  0
  9 14  1  0
  9 18  1  0
  9 19  1  0
 10 11  1  0
 10 15  1  0
 10 34  1  0
 10 35  1  0
 11 12  1  0
 11 13  1  0
 14 16  1  0
 14 20  1  0
 14 21  1  0
 15 17  1  0
 15 32  1  0
 15 33  1  0
 16 24  1  0
 16 30  1  0
 16 31  1  0
 17 22  1  0
 17 23  1  0
 17 27  1  0
 24 25  1  0
 24 26  1  0
 24 27  1  0
 27 28  1  0
 27 29  1  0
M  CHG  1   1   1
M  RAD  1   1   2
M  END
$$$$

     RDKit          3D

 37 37  0  0  0  0  0  0  0  0999 V2000
    0.3854   -1.2545    2.8771 S   0  0  0  0  0  2  0  0  0  0  0  0
    2.0902   -0.1970    3.5633 Si  0  0  0  0  0  4  0  0  0  0  0  0
    1.7339    0.4435    4.8618 H   0  0  0  0  0  0  0  0  0  0  0  0
    2.5230    0.8681    2.6766 H   0  0  0  0  0  0  0  0  0  0  0  0
   -1.3604   -0.7926    4.0736 Si  0  0  0  0  0  4  0  0  0  0  0  0
   -1.5664    0.6635    4.1391 H   0  0  0  0  0  0  0  0  0  0  0  0
   -2.5202   -1.3505    3.3364 H   0  0  0  0  0  0  0  0  0  0  0  0
   -1.1975   -1.7167    6.0854 Si  0  0  0  0  0  4  0  0  0  0  0  0
   -0.9988   -0.1714    7.6903 Si  0  0  0  0  0  4  0  0  0  0  0  0
    3.4378   -2.6533    5.9045 Si  0  0  0  0  0  4  0  0  0  0  0  0
    3.8007   -1.5869    4.0197 Si  0  0  0  0  0  4  0  0  0  0  0  0
    3.8610   -2.5421    2.8766 H   0  0  0  0  0  0  0  0  0  0  0  0
    5.0682   -0.8588    4.0150 H   0  0  0  0  0  0  0  0  0  0  0  0
   -0.2055   -1.0648    9.5530 Si  0  0  0  0  0  4  0  0  0  0  0  0
    5.1196   -2.5260    7.3342 Si  0  0  0  0  0  4  0  0  0  0  0  0
    2.0289   -0.8375    9.6867 Si  0  0  0  0  0  4  0  0  0  0  0  0
    5.7962   -0.5047    7.7704 Si  0  0  0  0  0  4  0  0  0  0  0  0
   -0.2185    0.9783    7.2468 H   0  0  0  0  0  0  0  0  0  0  0  0
   -2.3779    0.3209    7.9718 H   0  0  0  0  0  0  0  0  0  0  0  0
   -0.5766   -2.4715    9.6927 H   0  0  0  0  0  0  0  0  0  0  0  0
   -0.7849   -0.3306   10.6990 H   0  0  0  0  0  0  0  0  0  0  0  0
    6.9760   -0.1882    6.9225 H   0  0  0  0  0  0  0  0  0  0  0  0
    6.3013   -0.4446    9.1717 H   0  0  0  0  0  0  0  0  0  0  0  0
    2.6869    1.1300    8.9488 Si  0  0  0  0  0  4  0  0  0  0  0  0
    1.5075    1.7984    8.3252 H   0  0  0  0  0  0  0  0  0  0  0  0
    3.0700    2.0161   10.0833 H   0  0  0  0  0  0  0  0  0  0  0  0
    4.3143    1.0851    7.4934 Si  0  0  0  0  0  4  0  0  0  0  0  0
    5.0479    2.3850    7.5739 H   0  0  0  0  0  0  0  0  0  0  0  0
    3.7914    1.0287    6.1116 H   0  0  0  0  0  0  0  0  0  0  0  0
    2.3443   -0.9348   11.1377 H   0  0  0  0  0  0  0  0  0  0  0  0
    2.6876   -1.9612    9.0427 H   0  0  0  0  0  0  0  0  0  0  0  0
    6.2512   -3.3177    6.7734 H   0  0  0  0  0  0  0  0  0  0  0  0
    4.7276   -3.2092    8.5748 H   0  0  0  0  0  0  0  0  0  0  0  0
    3.1850   -4.0801    5.6213 H   0  0  0  0  0  0  0  0  0  0  0  0
    2.2279   -2.1272    6.5822 H   0  0  0  0  0  0  0  0  0  0  0  0
   -2.4355   -2.4841    6.3833 H   0  0  0  0  0  0  0  0  0  0  0  0
   -0.0888   -2.6504    6.1110 H   0  0  0  0  0  0  0  0  0  0  0  0
  1  2  1  0
  1  5  1  0
  2  3  1  0
  2  4  1  0
  2 11  1  0
  5  6  1  0
  5  7  1  0
  5  8  1  0
  8  9  1  0
  8 36  1  0
  8 37  1  0
  9 14  1  0
  9 18  1  0
  9 19  1  0
 10 11  1  0
 10 15  1  0
 10 34  1  0
 10 35  1  0
 11 12  1  0
 11 13  1  0
 14 16  1  0
 14 20  1  0
 14 21  1  0
 15 17  1  0
 15 32  1  0
 15 33  1  0
 16 24  1  0
 16 30  1  0
 16 31  1  0
 17 22  1  0
 17 23  1  0
 17 27  1  0
 24 25  1  0
 24 26  1  0
 24 27  1  0
 27 28  1  0
 27 29  1  0
M  CHG  1   1   1
M  RAD  1   1   2
M  END
$$$$

     RDKit          3D

 37 37  0  0  0  0  0  0  0  0999 V2000
    0.3854   -1.2545    2.8771 S   0  0  0  0  0  2  0  0  0  0  0  0
    1.0156    0.5382    3.8825 Si  0  0  0  0  0  4  0  0  0  0  0  0
   -0.1272    1.1890    4.5266 H   0  0  0  0  0  0  0  0  0  0  0  0
    1.4768    1.4740    2.8166 H   0  0  0  0  0  0  0  0  0  0  0  0
   -0.1017   -2.8055    4.2552 Si  0  0  0  0  0  4  0  0  0  0  0  0
   -1.3264   -3.5240    3.8899 H   0  0  0  0  0  0  0  0  0  0  0  0
    0.9984   -3.8099    4.1941 H   0  0  0  0  0  0  0  0  0  0  0  0
   -0.1653   -1.9784    6.2959 Si  0  0  0  0  0  4  0  0  0  0  0  0
   -1.5527   -3.0387    7.6398 Si  0  0  0  0  0  4  0  0  0  0  0  0
    2.3834    1.0532    7.2691 Si  0  0  0  0  0  4  0  0  0  0  0  0
    2.7007    0.1634    5.2639 Si  0  0  0  0  0  4  0  0  0  0  0  0
    3.9640    0.7399    4.7181 H   0  0  0  0  0  0  0  0  0  0  0  0
    2.9288   -1.2935    5.3278 H   0  0  0  0  0  0  0  0  0  0  0  0
   -0.4189   -3.7999    9.4353 Si  0  0  0  0  0  4  0  0  0  0  0  0
    4.2714    1.1857    8.4121 Si  0  0  0  0  0  4  0  0  0  0  0  0
    1.6658   -4.2731    8.8271 Si  0  0  0  0  0  4  0  0  0  0  0  0
    5.6463   -0.4810    8.0352 Si  0  0  0  0  0  4  0  0  0  0  0  0
   -2.3149   -4.0931    7.0037 H   0  0  0  0  0  0  0  0  0  0  0  0
   -2.5341   -2.0539    8.1770 H   0  0  0  0  0  0  0  0  0  0  0  0
   -1.1219   -4.9568    9.9878 H   0  0  0  0  0  0  0  0  0  0  0  0
   -0.3578   -2.7642   10.4801 H   0  0  0  0  0  0  0  0  0  0  0  0
    6.7177   -0.4614    9.0477 H   0  0  0  0  0  0  0  0  0  0  0  0
    6.3207   -0.2705    6.7259 H   0  0  0  0  0  0  0  0  0  0  0  0
    3.0985   -2.6921    9.5275 Si  0  0  0  0  0  4  0  0  0  0  0  0
    2.4248   -1.4532    9.8587 H   0  0  0  0  0  0  0  0  0  0  0  0
    3.7026   -3.2116   10.7837 H   0  0  0  0  0  0  0  0  0  0  0  0
    4.6985   -2.4625    8.0243 Si  0  0  0  0  0  4  0  0  0  0  0  0
    4.1467   -2.8406    6.7021 H   0  0  0  0  0  0  0  0  0  0  0  0
    5.7468   -3.4830    8.3161 H   0  0  0  0  0  0  0  0  0  0  0  0
    2.0282   -5.5943    9.3707 H   0  0  0  0  0  0  0  0  0  0  0  0
    1.7452   -4.3074    7.3635 H   0  0  0  0  0  0  0  0  0  0  0  0
    3.9278    1.2949    9.8569 H   0  0  0  0  0  0  0  0  0  0  0  0
    4.9351    2.4549    8.0613 H   0  0  0  0  0  0  0  0  0  0  0  0
    1.4163    0.3041    8.0787 H   0  0  0  0  0  0  0  0  0  0  0  0
    1.7899    2.4070    7.0702 H   0  0  0  0  0  0  0  0  0  0  0  0
   -0.5042   -0.5306    6.2014 H   0  0  0  0  0  0  0  0  0  0  0  0
    1.2180   -2.0108    6.8504 H   0  0  0  0  0  0  0  0  0  0  0  0
  1  2  1  0
  1  5  1  0
  2  3  1  0
  2  4  1  0
  2 11  1  0
  5  6  1  0
  5  7  1  0
  5  8  1  0
  8  9  1  0
  8 36  1  0
  8 37  1  0
  9 14  1  0
  9 18  1  0
  9 19  1  0
 10 11  1  0
 10 15  1  0
 10 34  1  0
 10 35  1  0
 11 12  1  0
 11 13  1  0
 14 16  1  0
 14 20  1  0
 14 21  1  0
 15 17  1  0
 15 32  1  0
 15 33  1  0
 16 24  1  0
 16 30  1  0
 16 31  1  0
 17 22  1  0
 17 23  1  0
 17 27  1  0
 24 25  1  0
 24 26  1  0
 24 27  1  0
 27 28  1  0
 27 29  1  0
M  CHG  1   1   1
M  RAD  1   1   2
M  END
$$$$

     RDKit          3D

 37 37  0  0  0  0  0  0  0  0999 V2000
    0.3854   -1.2545    2.8771 S   0  0  0  0  0  2  0  0  0  0  0  0
    2.4405   -0.6686    2.9274 Si  0  0  0  0  0  4  0  0  0  0  0  0
    3.0996   -1.2936    1.7493 H   0  0  0  0  0  0  0  0  0  0  0  0
    2.5803    0.7811    2.7518 H   0  0  0  0  0  0  0  0  0  0  0  0
   -0.6733   -0.6259    4.6117 Si  0  0  0  0  0  4  0  0  0  0  0  0
   -0.0040    0.5225    5.2664 H   0  0  0  0  0  0  0  0  0  0  0  0
   -2.0691   -0.2806    4.2976 H   0  0  0  0  0  0  0  0  0  0  0  0
   -0.7628   -2.3833    6.0234 Si  0  0  0  0  0  4  0  0  0  0  0  0
   -1.4924   -1.6836    7.9914 Si  0  0  0  0  0  4  0  0  0  0  0  0
    2.9653   -0.2508    6.5546 Si  0  0  0  0  0  4  0  0  0  0  0  0
    3.4829   -1.4040    4.7401 Si  0  0  0  0  0  4  0  0  0  0  0  0
    4.9476   -1.2550    4.5058 H   0  0  0  0  0  0  0  0  0  0  0  0
    3.1441   -2.8283    4.9135 H   0  0  0  0  0  0  0  0  0  0  0  0
   -0.1609   -2.2466    9.6601 Si  0  0  0  0  0  4  0  0  0  0  0  0
    4.6814    0.0395    7.9160 Si  0  0  0  0  0  4  0  0  0  0  0  0
    1.4290   -3.6602    9.0710 Si  0  0  0  0  0  4  0  0  0  0  0  0
    6.0158   -1.7245    7.9918 Si  0  0  0  0  0  4  0  0  0  0  0  0
   -2.8664   -2.2281    8.1807 H   0  0  0  0  0  0  0  0  0  0  0  0
   -1.6561   -0.2069    8.0145 H   0  0  0  0  0  0  0  0  0  0  0  0
   -0.9930   -2.9083   10.7056 H   0  0  0  0  0  0  0  0  0  0  0  0
    0.4114   -1.0462   10.3312 H   0  0  0  0  0  0  0  0  0  0  0  0
    6.5267   -2.0057    6.6360 H   0  0  0  0  0  0  0  0  0  0  0  0
    7.2009   -1.3614    8.8059 H   0  0  0  0  0  0  0  0  0  0  0  0
    3.3311   -3.0736   10.1331 Si  0  0  0  0  0  4  0  0  0  0  0  0
    3.2791   -1.6871   10.5716 H   0  0  0  0  0  0  0  0  0  0  0  0
    3.3789   -3.9256   11.3543 H   0  0  0  0  0  0  0  0  0  0  0  0
    5.0606   -3.5127    8.8357 Si  0  0  0  0  0  4  0  0  0  0  0  0
    4.6825   -4.4357    7.7352 H   0  0  0  0  0  0  0  0  0  0  0  0
    6.0759   -4.2579    9.6338 H   0  0  0  0  0  0  0  0  0  0  0  0
    1.0599   -5.0560    9.4224 H   0  0  0  0  0  0  0  0  0  0  0  0
    1.7252   -3.6505    7.6447 H   0  0  0  0  0  0  0  0  0  0  0  0
    5.4693    1.1880    7.4275 H   0  0  0  0  0  0  0  0  0  0  0  0
    4.1688    0.3605    9.2568 H   0  0  0  0  0  0  0  0  0  0  0  0
    1.8714   -0.8891    7.3345 H   0  0  0  0  0  0  0  0  0  0  0  0
    2.4710    1.0983    6.1567 H   0  0  0  0  0  0  0  0  0  0  0  0
    0.6193   -2.8999    6.1035 H   0  0  0  0  0  0  0  0  0  0  0  0
   -1.6129   -3.4030    5.4363 H   0  0  0  0  0  0  0  0  0  0  0  0
  1  2  1  0
  1  5  1  0
  2  3  1  0
  2  4  1  0
  2 11  1  0
  5  6  1  0
  5  7  1  0
  5  8  1  0
  8  9  1  0
  8 36  1  0
  8 37  1  0
  9 14  1  0
  9 18  1  0
  9 19  1  0
 10 11  1  0
 10 15  1  0
 10 34  1  0
 10 35  1  0
 11 12  1  0
 11 13  1  0
 14 16  1  0
 14 20  1  0
 14 21  1  0
 15 17  1  0
 15 32  1  0
 15 33  1  0
 16 24  1  0
 16 30  1  0
 16 31  1  0
 17 22  1  0
 17 23  1  0
 17 27  1  0
 24 25  1  0
 24 26  1  0
 24 27  1  0
 27 28  1  0
 27 29  1  0
M  CHG  1   1   1
M  RAD  1   1   2
M  END
$$$$

     RDKit          3D

 37 37  0  0  0  0  0  0  0  0999 V2000
    0.3854   -1.2545    2.8771 S   0  0  0  0  0  2  0  0  0  0  0  0
    1.8051   -2.7776    3.1559 Si  0  0  0  0  0  4  0  0  0  0  0  0
    1.2390   -4.1452    3.0204 H   0  0  0  0  0  0  0  0  0  0  0  0
    2.8094   -2.6677    2.0557 H   0  0  0  0  0  0  0  0  0  0  0  0
   -0.4412   -0.4599    4.6438 Si  0  0  0  0  0  4  0  0  0  0  0  0
   -0.0034   -1.1091    5.8620 H   0  0  0  0  0  0  0  0  0  0  0  0
   -1.9238   -0.6141    4.5791 H   0  0  0  0  0  0  0  0  0  0  0  0
   -0.0804    1.7596    4.7616 Si  0  0  0  0  0  4  0  0  0  0  0  0
    1.9877    2.2231    5.3572 Si  0  0  0  0  0  4  0  0  0  0  0  0
    1.8691   -3.6637    6.7392 Si  0  0  0  0  0  4  0  0  0  0  0  0
    2.9117   -2.6590    5.0636 Si  0  0  0  0  0  4  0  0  0  0  0  0
    3.2340   -1.2878    5.4369 H   0  0  0  0  0  0  0  0  0  0  0  0
    4.2138   -3.3607    4.8688 H   0  0  0  0  0  0  0  0  0  0  0  0
    2.0410    3.1491    7.4050 Si  0  0  0  0  0  4  0  0  0  0  0  0
    3.3455   -4.0730    8.3962 Si  0  0  0  0  0  4  0  0  0  0  0  0
    3.6301    2.2197    8.6599 Si  0  0  0  0  0  4  0  0  0  0  0  0
    3.9410   -2.1080    9.3105 Si  0  0  0  0  0  4  0  0  0  0  0  0
    2.5443    3.2092    4.3895 H   0  0  0  0  0  0  0  0  0  0  0  0
    2.8815    1.0852    5.3660 H   0  0  0  0  0  0  0  0  0  0  0  0
    2.2597    4.6042    7.3172 H   0  0  0  0  0  0  0  0  0  0  0  0
    0.7038    2.9556    8.0107 H   0  0  0  0  0  0  0  0  0  0  0  0
    4.8337   -1.3621    8.3977 H   0  0  0  0  0  0  0  0  0  0  0  0
    4.6187   -2.3011   10.5867 H   0  0  0  0  0  0  0  0  0  0  0  0
    2.6425    1.1231   10.3577 Si  0  0  0  0  0  4  0  0  0  0  0  0
    1.4374    1.8801   10.7420 H   0  0  0  0  0  0  0  0  0  0  0  0
    3.5794    1.0397   11.4863 H   0  0  0  0  0  0  0  0  0  0  0  0
    2.0822   -0.9055    9.5995 Si  0  0  0  0  0  4  0  0  0  0  0  0
    1.2209   -1.6174   10.5393 H   0  0  0  0  0  0  0  0  0  0  0  0
    1.4244   -0.7505    8.2987 H   0  0  0  0  0  0  0  0  0  0  0  0
    4.5107    3.2251    9.2475 H   0  0  0  0  0  0  0  0  0  0  0  0
    4.3640    1.2510    7.8436 H   0  0  0  0  0  0  0  0  0  0  0  0
    2.6506   -4.8343    9.4393 H   0  0  0  0  0  0  0  0  0  0  0  0
    4.5035   -4.8004    7.9028 H   0  0  0  0  0  0  0  0  0  0  0  0
    1.2544   -4.9128    6.2858 H   0  0  0  0  0  0  0  0  0  0  0  0
    0.8227   -2.8055    7.3454 H   0  0  0  0  0  0  0  0  0  0  0  0
   -0.4711    2.3341    3.4865 H   0  0  0  0  0  0  0  0  0  0  0  0
   -0.9992    2.2832    5.7963 H   0  0  0  0  0  0  0  0  0  0  0  0
  1  2  1  0
  1  5  1  0
  2  3  1  0
  2  4  1  0
  2 11  1  0
  5  6  1  0
  5  7  1  0
  5  8  1  0
  8  9  1  0
  8 36  1  0
  8 37  1  0
  9 14  1  0
  9 18  1  0
  9 19  1  0
 10 11  1  0
 10 15  1  0
 10 34  1  0
 10 35  1  0
 11 12  1  0
 11 13  1  0
 14 16  1  0
 14 20  1  0
 14 21  1  0
 15 17  1  0
 15 32  1  0
 15 33  1  0
 16 24  1  0
 16 30  1  0
 16 31  1  0
 17 22  1  0
 17 23  1  0
 17 27  1  0
 24 25  1  0
 24 26  1  0
 24 27  1  0
 27 28  1  0
 27 29  1  0
M  CHG  1   1   1
M  RAD  1   1   2
M  END
$$$$

     RDKit          3D

 37 37  0  0  0  0  0  0  0  0999 V2000
    0.3854   -1.2545    2.8771 S   0  0  0  0  0  2  0  0  0  0  0  0
    2.1562   -2.3263    3.3731 Si  0  0  0  0  0  4  0  0  0  0  0  0
    3.1368   -2.0983    2.2762 H   0  0  0  0  0  0  0  0  0  0  0  0
    1.9013   -3.7760    3.4003 H   0  0  0  0  0  0  0  0  0  0  0  0
   -0.7042   -0.6327    4.5950 Si  0  0  0  0  0  4  0  0  0  0  0  0
   -2.1308   -0.4560    4.2480 H   0  0  0  0  0  0  0  0  0  0  0  0
   -0.6336   -1.5859    5.6987 H   0  0  0  0  0  0  0  0  0  0  0  0
    0.0538    1.3842    5.2324 Si  0  0  0  0  0  4  0  0  0  0  0  0
   -0.2040    1.5191    7.4488 Si  0  0  0  0  0  4  0  0  0  0  0  0
    2.2308   -2.7610    7.0349 Si  0  0  0  0  0  4  0  0  0  0  0  0
    3.0624   -1.6483    5.2775 Si  0  0  0  0  0  4  0  0  0  0  0  0
    2.9220   -0.2022    5.4523 H   0  0  0  0  0  0  0  0  0  0  0  0
    4.5168   -1.9656    5.2175 H   0  0  0  0  0  0  0  0  0  0  0  0
    1.3528    2.8076    8.3660 Si  0  0  0  0  0  4  0  0  0  0  0  0
    3.7286   -4.0794    7.9512 Si  0  0  0  0  0  4  0  0  0  0  0  0
    3.3160    1.8004    8.4808 Si  0  0  0  0  0  4  0  0  0  0  0  0
    4.7122   -3.2473    9.7326 Si  0  0  0  0  0  4  0  0  0  0  0  0
   -1.5168    2.1700    7.6859 H   0  0  0  0  0  0  0  0  0  0  0  0
   -0.2345    0.1719    8.0204 H   0  0  0  0  0  0  0  0  0  0  0  0
    1.4933    4.0120    7.5378 H   0  0  0  0  0  0  0  0  0  0  0  0
    0.9484    3.2073    9.7139 H   0  0  0  0  0  0  0  0  0  0  0  0
    6.0032   -3.9699    9.9240 H   0  0  0  0  0  0  0  0  0  0  0  0
    3.9470   -3.4772   10.9762 H   0  0  0  0  0  0  0  0  0  0  0  0
    3.3498    0.1707    9.9950 Si  0  0  0  0  0  4  0  0  0  0  0  0
    3.4485    0.7889   11.3453 H   0  0  0  0  0  0  0  0  0  0  0  0
    2.1490   -0.6412    9.9872 H   0  0  0  0  0  0  0  0  0  0  0  0
    5.1598   -1.0936    9.5794 Si  0  0  0  0  0  4  0  0  0  0  0  0
    6.1716   -0.7591   10.6173 H   0  0  0  0  0  0  0  0  0  0  0  0
    5.7477   -0.7734    8.2830 H   0  0  0  0  0  0  0  0  0  0  0  0
    3.7392    1.2336    7.1971 H   0  0  0  0  0  0  0  0  0  0  0  0
    4.3239    2.8053    8.8915 H   0  0  0  0  0  0  0  0  0  0  0  0
    3.1077   -5.3796    8.3201 H   0  0  0  0  0  0  0  0  0  0  0  0
    4.7746   -4.3817    6.9339 H   0  0  0  0  0  0  0  0  0  0  0  0
    1.6235   -1.8081    7.9570 H   0  0  0  0  0  0  0  0  0  0  0  0
    1.1193   -3.6068    6.5118 H   0  0  0  0  0  0  0  0  0  0  0  0
    1.4399    1.5782    4.8246 H   0  0  0  0  0  0  0  0  0  0  0  0
   -0.7413    2.4509    4.5766 H   0  0  0  0  0  0  0  0  0  0  0  0
  1  2  1  0
  1  5  1  0
  2  3  1  0
  2  4  1  0
  2 11  1  0
  5  6  1  0
  5  7  1  0
  5  8  1  0
  8  9  1  0
  8 36  1  0
  8 37  1  0
  9 14  1  0
  9 18  1  0
  9 19  1  0
 10 11  1  0
 10 15  1  0
 10 34  1  0
 10 35  1  0
 11 12  1  0
 11 13  1  0
 14 16  1  0
 14 20  1  0
 14 21  1  0
 15 17  1  0
 15 32  1  0
 15 33  1  0
 16 24  1  0
 16 30  1  0
 16 31  1  0
 17 22  1  0
 17 23  1  0
 17 27  1  0
 24 25  1  0
 24 26  1  0
 24 27  1  0
 27 28  1  0
 27 29  1  0
M  CHG  1   1   1
M  RAD  1   1   2
M  END
$$$$
