
     RDKit          3D

 37 37  0  0  0  0  0  0  0  0999 V2000
    0.1293    0.1546   -4.1817 S   0  0  0  0  0  2  0  0  0  0  0  0
   -0.4758    2.1754   -4.1386 Si  0  0  0  0  0  4  0  0  0  0  0  0
   -1.0069    2.5868   -2.8384 H   0  0  0  0  0  0  0  0  0  0  0  0
    0.7228    3.0269   -4.3855 H   0  0  0  0  0  0  0  0  0  0  0  0
   -0.9730   -1.0472   -5.5323 Si  0  0  0  0  0  4  0  0  0  0  0  0
   -2.3954   -0.7346   -5.5541 H   0  0  0  0  0  0  0  0  0  0  0  0
   -0.8568   -2.4641   -5.0818 H   0  0  0  0  0  0  0  0  0  0  0  0
   -0.1473   -0.9718   -7.6069 Si  0  0  0  0  0  4  0  0  0  0  0  0
    2.0560   -1.2933   -7.5818 Si  0  0  0  0  0  4  0  0  0  0  0  0
   -1.8520    4.9009   -6.0454 Si  0  0  0  0  0  4  0  0  0  0  0  0
   -1.9574    2.6766   -5.7270 Si  0  0  0  0  0  4  0  0  0  0  0  0
   -1.6731    1.9904   -6.9890 H   0  0  0  0  0  0  0  0  0  0  0  0
   -3.3432    2.3718   -5.2782 H   0  0  0  0  0  0  0  0  0  0  0  0
    3.1202    0.4780   -6.7670 Si  0  0  0  0  0  4  0  0  0  0  0  0
   -1.9695    5.4171   -8.1962 Si  0  0  0  0  0  4  0  0  0  0  0  0
    2.3417    2.3842   -7.6045 Si  0  0  0  0  0  4  0  0  0  0  0  0
    0.0346    5.2529   -9.1949 Si  0  0  0  0  0  4  0  0  0  0  0  0
    2.5143   -1.6271   -8.9457 H   0  0  0  0  0  0  0  0  0  0  0  0
    2.3522   -2.4412   -6.6958 H   0  0  0  0  0  0  0  0  0  0  0  0
    2.9141    0.5110   -5.3093 H   0  0  0  0  0  0  0  0  0  0  0  0
    4.5548    0.3499   -7.0183 H   0  0  0  0  0  0  0  0  0  0  0  0
    0.1708    6.3580  -10.1693 H   0  0  0  0  0  0  0  0  0  0  0  0
    1.1059    5.3004   -8.1881 H   0  0  0  0  0  0  0  0  0  0  0  0
    2.0137    2.2599   -9.8005 Si  0  0  0  0  0  4  0  0  0  0  0  0
    3.1072    2.9407  -10.5109 H   0  0  0  0  0  0  0  0  0  0  0  0
    1.9931    0.8662  -10.2622 H   0  0  0  0  0  0  0  0  0  0  0  0
    0.1079    3.3225  -10.3348 Si  0  0  0  0  0  4  0  0  0  0  0  0
    0.0077    3.5624  -11.7679 H   0  0  0  0  0  0  0  0  0  0  0  0
   -0.9970    2.4464   -9.8673 H   0  0  0  0  0  0  0  0  0  0  0  0
    1.0976    2.8083   -6.9704 H   0  0  0  0  0  0  0  0  0  0  0  0
    3.3508    3.4336   -7.3287 H   0  0  0  0  0  0  0  0  0  0  0  0
   -2.8926    4.5370   -8.8900 H   0  0  0  0  0  0  0  0  0  0  0  0
   -2.4496    6.8054   -8.3598 H   0  0  0  0  0  0  0  0  0  0  0  0
   -2.9394    5.5885   -5.3431 H   0  0  0  0  0  0  0  0  0  0  0  0
   -0.5622    5.4346   -5.5297 H   0  0  0  0  0  0  0  0  0  0  0  0
   -0.4584    0.3270   -8.2385 H   0  0  0  0  0  0  0  0  0  0  0  0
   -0.7633   -2.0299   -8.4059 H   0  0  0  0  0  0  0  0  0  0  0  0
  1  2  1  0
  1  5  1  0
  2  3  1  0
  2  4  1  0
  2 11  1  0
  5  6  1  0
  5  7  1  0
  5  8  1  0
  8  9  1  0
  8 36  1  0
  8 37  1  0
  9 14  1  0
  9 18  1  0
  9 19  1  0
 10 11  1  0
 10 15  1  0
 10 34  1  0
 10 35  1  0
 11 12  1  0
 11 13  1  0
 14 16  1  0
 14 20  1  0
 14 21  1  0
 15 17  1  0
 15 32  1  0
 15 33  1  0
 16 24  1  0
 16 30  1  0
 16 31  1  0
 17 22  1  0
 17 23  1  0
 17 27  1  0
 24 25  1  0
 24 26  1  0
 24 27  1  0
 27 28  1  0
 27 29  1  0
M  CHG  1   1   1
M  RAD  1   1   2
M  END
$$$$

     RDKit          3D

 37 37  0  0  0  0  0  0  0  0999 V2000
    0.1293    0.1546   -4.1817 S   0  0  0  0  0  2  0  0  0  0  0  0
   -0.0803   -1.5691   -5.4059 Si  0  0  0  0  0  4  0  0  0  0  0  0
    1.2332   -2.2111   -5.6583 H   0  0  0  0  0  0  0  0  0  0  0  0
   -0.9242   -2.5472   -4.7486 H   0  0  0  0  0  0  0  0  0  0  0  0
    1.7766    1.3988   -4.8449 Si  0  0  0  0  0  4  0  0  0  0  0  0
    2.9574    0.6015   -5.1317 H   0  0  0  0  0  0  0  0  0  0  0  0
    2.1174    2.2601   -3.6755 H   0  0  0  0  0  0  0  0  0  0  0  0
    1.1648    2.7020   -6.5194 Si  0  0  0  0  0  4  0  0  0  0  0  0
    2.1319    2.2306   -8.4265 Si  0  0  0  0  0  4  0  0  0  0  0  0
   -1.2023   -2.8584   -8.6383 Si  0  0  0  0  0  4  0  0  0  0  0  0
   -1.0249   -1.0524   -7.3787 Si  0  0  0  0  0  4  0  0  0  0  0  0
   -2.3555   -0.5302   -7.0963 H   0  0  0  0  0  0  0  0  0  0  0  0
   -0.2612   -0.0113   -8.0565 H   0  0  0  0  0  0  0  0  0  0  0  0
    4.0024    1.0636   -8.2317 Si  0  0  0  0  0  4  0  0  0  0  0  0
    0.7742   -3.5265   -9.4320 Si  0  0  0  0  0  4  0  0  0  0  0  0
    3.6652   -1.0088   -7.5508 Si  0  0  0  0  0  4  0  0  0  0  0  0
    1.7070   -2.0081  -10.7379 Si  0  0  0  0  0  4  0  0  0  0  0  0
    1.1914    1.5334   -9.3412 H   0  0  0  0  0  0  0  0  0  0  0  0
    2.4785    3.5019   -9.1258 H   0  0  0  0  0  0  0  0  0  0  0  0
    4.9552    1.8027   -7.3953 H   0  0  0  0  0  0  0  0  0  0  0  0
    4.6165    0.9964   -9.5893 H   0  0  0  0  0  0  0  0  0  0  0  0
    1.1936   -2.1598  -12.1282 H   0  0  0  0  0  0  0  0  0  0  0  0
    1.4562   -0.6497  -10.3032 H   0  0  0  0  0  0  0  0  0  0  0  0
    4.8024   -2.4895   -8.8185 Si  0  0  0  0  0  4  0  0  0  0  0  0
    6.2249   -2.2136   -8.8032 H   0  0  0  0  0  0  0  0  0  0  0  0
    4.5637   -3.8246   -8.2002 H   0  0  0  0  0  0  0  0  0  0  0  0
    3.9180   -2.4354  -10.8564 Si  0  0  0  0  0  4  0  0  0  0  0  0
    4.5901   -1.3361  -11.5986 H   0  0  0  0  0  0  0  0  0  0  0  0
    4.0895   -3.7202  -11.5471 H   0  0  0  0  0  0  0  0  0  0  0  0
    2.2422   -1.3389   -7.7426 H   0  0  0  0  0  0  0  0  0  0  0  0
    4.0996   -1.2388   -6.1647 H   0  0  0  0  0  0  0  0  0  0  0  0
    0.5125   -4.7375  -10.2598 H   0  0  0  0  0  0  0  0  0  0  0  0
    1.6351   -3.9480   -8.3378 H   0  0  0  0  0  0  0  0  0  0  0  0
   -2.1359   -2.6522   -9.7397 H   0  0  0  0  0  0  0  0  0  0  0  0
   -1.7166   -3.9607   -7.7865 H   0  0  0  0  0  0  0  0  0  0  0  0
    1.3686    4.1389   -6.1756 H   0  0  0  0  0  0  0  0  0  0  0  0
   -0.3109    2.5591   -6.6865 H   0  0  0  0  0  0  0  0  0  0  0  0
  1  2  1  0
  1  5  1  0
  2  3  1  0
  2  4  1  0
  2 11  1  0
  5  6  1  0
  5  7  1  0
  5  8  1  0
  8  9  1  0
  8 36  1  0
  8 37  1  0
  9 14  1  0
  9 18  1  0
  9 19  1  0
 10 11  1  0
 10 15  1  0
 10 34  1  0
 10 35  1  0
 11 12  1  0
 11 13  1  0
 14 16  1  0
 14 20  1  0
 14 21  1  0
 15 17  1  0
 15 32  1  0
 15 33  1  0
 16 24  1  0
 16 30  1  0
 16 31  1  0
 17 22  1  0
 17 23  1  0
 17 27  1  0
 24 25  1  0
 24 26  1  0
 24 27  1  0
 27 28  1  0
 27 29  1  0
M  CHG  1   1   1
M  RAD  1   1   2
M  END
$$$$

     RDKit          3D

 37 37  0  0  0  0  0  0  0  0999 V2000
    0.1293    0.1546   -4.1817 S   0  0  0  0  0  2  0  0  0  0  0  0
   -0.5987    2.1211   -4.2953 Si  0  0  0  0  0  4  0  0  0  0  0  0
    0.5204    3.0581   -4.4680 H   0  0  0  0  0  0  0  0  0  0  0  0
   -1.2456    2.4671   -2.9972 H   0  0  0  0  0  0  0  0  0  0  0  0
   -0.2008   -1.0252   -5.9006 Si  0  0  0  0  0  4  0  0  0  0  0  0
   -1.1331   -0.4500   -6.8553 H   0  0  0  0  0  0  0  0  0  0  0  0
   -0.7656   -2.3340   -5.4655 H   0  0  0  0  0  0  0  0  0  0  0  0
    1.7264   -1.4604   -6.9513 Si  0  0  0  0  0  4  0  0  0  0  0  0
    1.8405   -0.3323   -8.8705 Si  0  0  0  0  0  4  0  0  0  0  0  0
   -1.4082    4.0878   -7.2976 Si  0  0  0  0  0  4  0  0  0  0  0  0
   -2.0671    2.4603   -5.9005 Si  0  0  0  0  0  4  0  0  0  0  0  0
   -2.2926    1.2182   -6.6678 H   0  0  0  0  0  0  0  0  0  0  0  0
   -3.3987    2.8624   -5.3824 H   0  0  0  0  0  0  0  0  0  0  0  0
    1.4118   -1.6982  -10.5949 Si  0  0  0  0  0  4  0  0  0  0  0  0
   -1.5173    3.3268   -9.4102 Si  0  0  0  0  0  4  0  0  0  0  0  0
   -0.8064   -1.6562  -10.9359 Si  0  0  0  0  0  4  0  0  0  0  0  0
   -3.0387    1.6621   -9.4077 Si  0  0  0  0  0  4  0  0  0  0  0  0
    3.1791    0.2673   -9.0327 H   0  0  0  0  0  0  0  0  0  0  0  0
    0.8554    0.7633   -8.8596 H   0  0  0  0  0  0  0  0  0  0  0  0
    1.8917   -3.0504  -10.3306 H   0  0  0  0  0  0  0  0  0  0  0  0
    2.0371   -1.1603  -11.8158 H   0  0  0  0  0  0  0  0  0  0  0  0
   -2.4236    0.5596   -8.6182 H   0  0  0  0  0  0  0  0  0  0  0  0
   -4.2831    2.1064   -8.8117 H   0  0  0  0  0  0  0  0  0  0  0  0
   -1.2725    0.1538  -12.1428 Si  0  0  0  0  0  4  0  0  0  0  0  0
   -1.2296   -0.0860  -13.5717 H   0  0  0  0  0  0  0  0  0  0  0  0
   -0.3095    1.2149  -11.7331 H   0  0  0  0  0  0  0  0  0  0  0  0
   -3.2962    0.8974  -11.4867 Si  0  0  0  0  0  4  0  0  0  0  0  0
   -4.2688   -0.1853  -11.4559 H   0  0  0  0  0  0  0  0  0  0  0  0
   -3.7521    1.9934  -12.3467 H   0  0  0  0  0  0  0  0  0  0  0  0
   -1.2044   -2.8731  -11.6555 H   0  0  0  0  0  0  0  0  0  0  0  0
   -1.5148   -1.6579   -9.6425 H   0  0  0  0  0  0  0  0  0  0  0  0
   -0.2113    2.7776   -9.7894 H   0  0  0  0  0  0  0  0  0  0  0  0
   -1.9232    4.3852  -10.3357 H   0  0  0  0  0  0  0  0  0  0  0  0
   -0.0157    4.4648   -7.0220 H   0  0  0  0  0  0  0  0  0  0  0  0
   -2.2775    5.2583   -7.2116 H   0  0  0  0  0  0  0  0  0  0  0  0
    2.8376   -1.0821   -6.0584 H   0  0  0  0  0  0  0  0  0  0  0  0
    1.8758   -2.8810   -7.2553 H   0  0  0  0  0  0  0  0  0  0  0  0
  1  2  1  0
  1  5  1  0
  2  3  1  0
  2  4  1  0
  2 11  1  0
  5  6  1  0
  5  7  1  0
  5  8  1  0
  8  9  1  0
  8 36  1  0
  8 37  1  0
  9 14  1  0
  9 18  1  0
  9 19  1  0
 10 11  1  0
 10 15  1  0
 10 34  1  0
 10 35  1  0
 11 12  1  0
 11 13  1  0
 14 16  1  0
 14 20  1  0
 14 21  1  0
 15 17  1  0
 15 32  1  0
 15 33  1  0
 16 24  1  0
 16 30  1  0
 16 31  1  0
 17 22  1  0
 17 23  1  0
 17 27  1  0
 24 25  1  0
 24 26  1  0
 24 27  1  0
 27 28  1  0
 27 29  1  0
M  CHG  1   1   1
M  RAD  1   1   2
M  END
$$$$

     RDKit          3D

 37 37  0  0  0  0  0  0  0  0999 V2000
    0.1293    0.1546   -4.1817 S   0  0  0  0  0  2  0  0  0  0  0  0
    1.2159   -1.5856   -4.7396 Si  0  0  0  0  0  4  0  0  0  0  0  0
    1.8960   -2.2210   -3.6102 H   0  0  0  0  0  0  0  0  0  0  0  0
    2.2498   -1.2594   -5.7396 H   0  0  0  0  0  0  0  0  0  0  0  0
    0.0705    1.6023   -5.7885 Si  0  0  0  0  0  4  0  0  0  0  0  0
    1.0454    2.6642   -5.4073 H   0  0  0  0  0  0  0  0  0  0  0  0
    0.5420    1.0345   -7.0407 H   0  0  0  0  0  0  0  0  0  0  0  0
   -1.9256    2.5396   -5.9571 Si  0  0  0  0  0  4  0  0  0  0  0  0
   -2.9282    2.1200   -7.8739 Si  0  0  0  0  0  4  0  0  0  0  0  0
   -1.6345   -2.0499   -7.0333 Si  0  0  0  0  0  4  0  0  0  0  0  0
   -0.2549   -3.0599   -5.6076 Si  0  0  0  0  0  4  0  0  0  0  0  0
   -0.9547   -3.7829   -4.5610 H   0  0  0  0  0  0  0  0  0  0  0  0
    0.5642   -4.0429   -6.3693 H   0  0  0  0  0  0  0  0  0  0  0  0
   -1.4985    1.6806   -9.5082 Si  0  0  0  0  0  4  0  0  0  0  0  0
   -3.7096   -1.9465   -6.2666 Si  0  0  0  0  0  4  0  0  0  0  0  0
   -2.4575    0.7911  -11.2753 Si  0  0  0  0  0  4  0  0  0  0  0  0
   -5.2279   -2.0231   -7.8664 Si  0  0  0  0  0  4  0  0  0  0  0  0
   -3.6948    3.3359   -8.2675 H   0  0  0  0  0  0  0  0  0  0  0  0
   -3.9328    1.0429   -7.7064 H   0  0  0  0  0  0  0  0  0  0  0  0
   -0.8093    2.9276   -9.8642 H   0  0  0  0  0  0  0  0  0  0  0  0
   -0.4468    0.7476   -9.0254 H   0  0  0  0  0  0  0  0  0  0  0  0
   -6.0960   -3.2123   -7.6514 H   0  0  0  0  0  0  0  0  0  0  0  0
   -6.1450   -0.8486   -7.8188 H   0  0  0  0  0  0  0  0  0  0  0  0
   -4.4635   -0.0422  -10.8692 Si  0  0  0  0  0  4  0  0  0  0  0  0
   -5.1458   -0.2365  -12.1799 H   0  0  0  0  0  0  0  0  0  0  0  0
   -5.3110    0.8670  -10.0986 H   0  0  0  0  0  0  0  0  0  0  0  0
   -4.3292   -2.0611   -9.9013 Si  0  0  0  0  0  4  0  0  0  0  0  0
   -5.0334   -3.0813  -10.6852 H   0  0  0  0  0  0  0  0  0  0  0  0
   -2.9141   -2.4309   -9.8708 H   0  0  0  0  0  0  0  0  0  0  0  0
   -1.6173   -0.3064  -11.8336 H   0  0  0  0  0  0  0  0  0  0  0  0
   -2.5421    1.8121  -12.3454 H   0  0  0  0  0  0  0  0  0  0  0  0
   -3.8871   -0.6617   -5.5311 H   0  0  0  0  0  0  0  0  0  0  0  0
   -3.9474   -3.0081   -5.2670 H   0  0  0  0  0  0  0  0  0  0  0  0
   -1.1477   -0.6666   -7.2156 H   0  0  0  0  0  0  0  0  0  0  0  0
   -1.5586   -2.6867   -8.3681 H   0  0  0  0  0  0  0  0  0  0  0  0
   -1.8621    4.0065   -5.6989 H   0  0  0  0  0  0  0  0  0  0  0  0
   -2.7718    1.9968   -4.8557 H   0  0  0  0  0  0  0  0  0  0  0  0
  1  2  1  0
  1  5  1  0
  2  3  1  0
  2  4  1  0
  2 11  1  0
  5  6  1  0
  5  7  1  0
  5  8  1  0
  8  9  1  0
  8 36  1  0
  8 37  1  0
  9 14  1  0
  9 18  1  0
  9 19  1  0
 10 11  1  0
 10 15  1  0
 10 34  1  0
 10 35  1  0
 11 12  1  0
 11 13  1  0
 14 16  1  0
 14 20  1  0
 14 21  1  0
 15 17  1  0
 15 32  1  0
 15 33  1  0
 16 24  1  0
 16 30  1  0
 16 31  1  0
 17 22  1  0
 17 23  1  0
 17 27  1  0
 24 25  1  0
 24 26  1  0
 24 27  1  0
 27 28  1  0
 27 29  1  0
M  CHG  1   1   1
M  RAD  1   1   2
M  END
$$$$

     RDKit          3D

 37 37  0  0  0  0  0  0  0  0999 V2000
    0.1293    0.1546   -4.1817 S   0  0  0  0  0  2  0  0  0  0  0  0
   -0.9843    1.9466   -4.1656 Si  0  0  0  0  0  4  0  0  0  0  0  0
   -1.6240    2.2120   -2.8763 H   0  0  0  0  0  0  0  0  0  0  0  0
   -0.0468    3.0809   -4.4048 H   0  0  0  0  0  0  0  0  0  0  0  0
   -0.5995   -1.3016   -5.5352 Si  0  0  0  0  0  4  0  0  0  0  0  0
   -2.0536   -1.3726   -5.5784 H   0  0  0  0  0  0  0  0  0  0  0  0
   -0.1232   -2.6360   -5.0699 H   0  0  0  0  0  0  0  0  0  0  0  0
    0.2088   -1.0244   -7.5994 Si  0  0  0  0  0  4  0  0  0  0  0  0
    2.4188   -0.7575   -7.5426 Si  0  0  0  0  0  4  0  0  0  0  0  0
   -2.9971    4.2057   -6.1157 Si  0  0  0  0  0  4  0  0  0  0  0  0
   -2.5213    2.0333   -5.7778 Si  0  0  0  0  0  4  0  0  0  0  0  0
   -2.0484    1.4383   -7.0294 H   0  0  0  0  0  0  0  0  0  0  0  0
   -3.7856    1.3787   -5.3443 H   0  0  0  0  0  0  0  0  0  0  0  0
    2.9698    1.2353   -6.7307 Si  0  0  0  0  0  4  0  0  0  0  0  0
   -3.2132    4.6609   -8.2727 Si  0  0  0  0  0  4  0  0  0  0  0  0
    1.7321    2.8663   -7.5962 Si  0  0  0  0  0  4  0  0  0  0  0  0
   -1.2212    5.0217   -9.2435 Si  0  0  0  0  0  4  0  0  0  0  0  0
    2.9690   -0.9674   -8.8972 H   0  0  0  0  0  0  0  0  0  0  0  0
    2.9918   -1.7827   -6.6420 H   0  0  0  0  0  0  0  0  0  0  0  0
    2.7404    1.2215   -5.2762 H   0  0  0  0  0  0  0  0  0  0  0  0
    4.3916    1.4860   -6.9621 H   0  0  0  0  0  0  0  0  0  0  0  0
   -1.3644    6.1182  -10.2265 H   0  0  0  0  0  0  0  0  0  0  0  0
   -0.2150    5.3538   -8.2234 H   0  0  0  0  0  0  0  0  0  0  0  0
    1.4813    2.6480   -9.7950 Si  0  0  0  0  0  4  0  0  0  0  0  0
    2.3690    3.5873  -10.4975 H   0  0  0  0  0  0  0  0  0  0  0  0
    1.8331    1.2949  -10.2438 H   0  0  0  0  0  0  0  0  0  0  0  0
   -0.6280    3.1713  -10.3641 Si  0  0  0  0  0  4  0  0  0  0  0  0
   -0.7659    3.3684  -11.8006 H   0  0  0  0  0  0  0  0  0  0  0  0
   -1.4719    2.0391   -9.9029 H   0  0  0  0  0  0  0  0  0  0  0  0
    0.4111    2.9534   -6.9824 H   0  0  0  0  0  0  0  0  0  0  0  0
    2.4271    4.1449   -7.3171 H   0  0  0  0  0  0  0  0  0  0  0  0
   -3.8632    3.5659   -8.9701 H   0  0  0  0  0  0  0  0  0  0  0  0
   -4.0374    5.8740   -8.4556 H   0  0  0  0  0  0  0  0  0  0  0  0
   -4.2370    4.5885   -5.4342 H   0  0  0  0  0  0  0  0  0  0  0  0
   -1.8999    5.0614   -5.5884 H   0  0  0  0  0  0  0  0  0  0  0  0
   -0.4218    0.1440   -8.2473 H   0  0  0  0  0  0  0  0  0  0  0  0
   -0.0966   -2.2114   -8.3964 H   0  0  0  0  0  0  0  0  0  0  0  0
  1  2  1  0
  1  5  1  0
  2  3  1  0
  2  4  1  0
  2 11  1  0
  5  6  1  0
  5  7  1  0
  5  8  1  0
  8  9  1  0
  8 36  1  0
  8 37  1  0
  9 14  1  0
  9 18  1  0
  9 19  1  0
 10 11  1  0
 10 15  1  0
 10 34  1  0
 10 35  1  0
 11 12  1  0
 11 13  1  0
 14 16  1  0
 14 20  1  0
 14 21  1  0
 15 17  1  0
 15 32  1  0
 15 33  1  0
 16 24  1  0
 16 30  1  0
 16 31  1  0
 17 22  1  0
 17 23  1  0
 17 27  1  0
 24 25  1  0
 24 26  1  0
 24 27  1  0
 27 28  1  0
 27 29  1  0
M  CHG  1   1   1
M  RAD  1   1   2
M  END
$$$$

     RDKit          3D

 37 37  0  0  0  0  0  0  0  0999 V2000
    0.1293    0.1546   -4.1817 S   0  0  0  0  0  2  0  0  0  0  0  0
   -0.8174    2.0105   -4.6052 Si  0  0  0  0  0  4  0  0  0  0  0  0
   -1.5263    2.5666   -3.4520 H   0  0  0  0  0  0  0  0  0  0  0  0
   -1.8059    1.8590   -5.6892 H   0  0  0  0  0  0  0  0  0  0  0  0
    0.2005   -1.1170   -5.9308 Si  0  0  0  0  0  4  0  0  0  0  0  0
   -0.8565   -2.1477   -5.7205 H   0  0  0  0  0  0  0  0  0  0  0  0
   -0.1600   -0.3915   -7.1375 H   0  0  0  0  0  0  0  0  0  0  0  0
    2.1446   -2.1590   -6.0919 Si  0  0  0  0  0  4  0  0  0  0  0  0
    3.2848   -1.6063   -7.8947 Si  0  0  0  0  0  4  0  0  0  0  0  0
    2.1895    2.5273   -6.6773 Si  0  0  0  0  0  4  0  0  0  0  0  0
    0.7875    3.4694   -5.2271 Si  0  0  0  0  0  4  0  0  0  0  0  0
    1.4636    4.0314   -4.0717 H   0  0  0  0  0  0  0  0  0  0  0  0
    0.0754    4.5779   -5.9206 H   0  0  0  0  0  0  0  0  0  0  0  0
    1.9852   -0.9057   -9.5465 Si  0  0  0  0  0  4  0  0  0  0  0  0
    4.2045    2.2095   -5.8151 Si  0  0  0  0  0  4  0  0  0  0  0  0
    3.1004    0.1004  -11.1520 Si  0  0  0  0  0  4  0  0  0  0  0  0
    5.8191    2.3552   -7.3126 Si  0  0  0  0  0  4  0  0  0  0  0  0
    4.0011   -2.8212   -8.3760 H   0  0  0  0  0  0  0  0  0  0  0  0
    4.3388   -0.6202   -7.5571 H   0  0  0  0  0  0  0  0  0  0  0  0
    1.2469   -2.0611  -10.0727 H   0  0  0  0  0  0  0  0  0  0  0  0
    0.9628    0.0377   -9.0229 H   0  0  0  0  0  0  0  0  0  0  0  0
    6.7408    3.4563   -6.9231 H   0  0  0  0  0  0  0  0  0  0  0  0
    6.6610    1.1251   -7.3434 H   0  0  0  0  0  0  0  0  0  0  0  0
    5.1235    0.7545  -10.5498 Si  0  0  0  0  0  4  0  0  0  0  0  0
    5.8944    1.0407  -11.7928 H   0  0  0  0  0  0  0  0  0  0  0  0
    5.8678   -0.2837   -9.8379 H   0  0  0  0  0  0  0  0  0  0  0  0
    5.0494    2.6650   -9.3770 Si  0  0  0  0  0  4  0  0  0  0  0  0
    5.8586    3.7140  -10.0062 H   0  0  0  0  0  0  0  0  0  0  0  0
    3.6593    3.1206   -9.3831 H   0  0  0  0  0  0  0  0  0  0  0  0
    2.3615    1.3027  -11.6324 H   0  0  0  0  0  0  0  0  0  0  0  0
    3.1897   -0.8058  -12.3205 H   0  0  0  0  0  0  0  0  0  0  0  0
    4.2612    0.8458   -5.2151 H   0  0  0  0  0  0  0  0  0  0  0  0
    4.4431    3.1426   -4.6948 H   0  0  0  0  0  0  0  0  0  0  0  0
    1.6342    1.2053   -7.0349 H   0  0  0  0  0  0  0  0  0  0  0  0
    2.2323    3.3045   -7.9371 H   0  0  0  0  0  0  0  0  0  0  0  0
    1.9796   -3.6377   -5.9984 H   0  0  0  0  0  0  0  0  0  0  0  0
    2.9528   -1.7910   -4.8939 H   0  0  0  0  0  0  0  0  0  0  0  0
  1  2  1  0
  1  5  1  0
  2  3  1  0
  2  4  1  0
  2 11  1  0
  5  6  1  0
  5  7  1  0
  5  8  1  0
  8  9  1  0
  8 36  1  0
  8 37  1  0
  9 14  1  0
  9 18  1  0
  9 19  1  0
 10 11  1  0
 10 15  1  0
 10 34  1  0
 10 35  1  0
 11 12  1  0
 11 13  1  0
 14 16  1  0
 14 20  1  0
 14 21  1  0
 15 17  1  0
 15 32  1  0
 15 33  1  0
 16 24  1  0
 16 30  1  0
 16 31  1  0
 17 22  1  0
 17 23  1  0
 17 27  1  0
 24 25  1  0
 24 26  1  0
 24 27  1  0
 27 28  1  0
 27 29  1  0
M  CHG  1   1   1
M  RAD  1   1   2
M  END
$$$$

     RDKit          3D

 37 37  0  0  0  0  0  0  0  0999 V2000
    0.1293    0.1546   -4.1817 S   0  0  0  0  0  2  0  0  0  0  0  0
   -1.8441   -0.5779   -4.3259 Si  0  0  0  0  0  4  0  0  0  0  0  0
   -2.3279   -1.1705   -3.0782 H   0  0  0  0  0  0  0  0  0  0  0  0
   -2.7484    0.5710   -4.6174 H   0  0  0  0  0  0  0  0  0  0  0  0
    1.5099   -0.8309   -5.4490 Si  0  0  0  0  0  4  0  0  0  0  0  0
    1.2938   -2.2691   -5.5300 H   0  0  0  0  0  0  0  0  0  0  0  0
    2.8732   -0.6383   -4.8762 H   0  0  0  0  0  0  0  0  0  0  0  0
    1.5554    0.0467   -7.5031 Si  0  0  0  0  0  4  0  0  0  0  0  0
    1.7290    2.2642   -7.4003 Si  0  0  0  0  0  4  0  0  0  0  0  0
   -4.3039   -2.0690   -6.4902 Si  0  0  0  0  0  4  0  0  0  0  0  0
   -2.1121   -2.0427   -5.9848 Si  0  0  0  0  0  4  0  0  0  0  0  0
   -1.3422   -1.6801   -7.1765 H   0  0  0  0  0  0  0  0  0  0  0  0
   -1.7562   -3.4187   -5.5433 H   0  0  0  0  0  0  0  0  0  0  0  0
   -0.1702    3.1910   -6.7163 Si  0  0  0  0  0  4  0  0  0  0  0  0
   -4.6285   -2.1580   -8.6795 Si  0  0  0  0  0  4  0  0  0  0  0  0
   -1.9443    2.3177   -7.7317 Si  0  0  0  0  0  4  0  0  0  0  0  0
   -4.5122   -0.1200   -9.6145 Si  0  0  0  0  0  4  0  0  0  0  0  0
    2.1457    2.7811   -8.7197 H   0  0  0  0  0  0  0  0  0  0  0  0
    2.7765    2.6072   -6.4126 H   0  0  0  0  0  0  0  0  0  0  0  0
   -0.3122    2.9421   -5.2719 H   0  0  0  0  0  0  0  0  0  0  0  0
   -0.1155    4.6374   -6.9229 H   0  0  0  0  0  0  0  0  0  0  0  0
   -5.5379   -0.0264  -10.6767 H   0  0  0  0  0  0  0  0  0  0  0  0
   -4.7141    0.9171   -8.5913 H   0  0  0  0  0  0  0  0  0  0  0  0
   -1.6146    2.0605   -9.9159 Si  0  0  0  0  0  4  0  0  0  0  0  0
   -2.3032    3.1285  -10.6569 H   0  0  0  0  0  0  0  0  0  0  0  0
   -0.1886    2.1409  -10.2568 H   0  0  0  0  0  0  0  0  0  0  0  0
   -2.5017    0.1072  -10.5827 Si  0  0  0  0  0  4  0  0  0  0  0  0
   -2.6131    0.0326  -12.0330 H   0  0  0  0  0  0  0  0  0  0  0  0
   -1.5977   -0.9529  -10.0672 H   0  0  0  0  0  0  0  0  0  0  0  0
   -2.3381    1.0319   -7.1649 H   0  0  0  0  0  0  0  0  0  0  0  0
   -3.0769    3.2503   -7.5240 H   0  0  0  0  0  0  0  0  0  0  0  0
   -3.6348   -3.0037   -9.3162 H   0  0  0  0  0  0  0  0  0  0  0  0
   -5.9638   -2.7199   -8.9725 H   0  0  0  0  0  0  0  0  0  0  0  0
   -4.9756   -3.2171   -5.8745 H   0  0  0  0  0  0  0  0  0  0  0  0
   -4.9621   -0.8306   -5.9930 H   0  0  0  0  0  0  0  0  0  0  0  0
    0.3375   -0.3278   -8.2507 H   0  0  0  0  0  0  0  0  0  0  0  0
    2.7150   -0.4785   -8.2222 H   0  0  0  0  0  0  0  0  0  0  0  0
  1  2  1  0
  1  5  1  0
  2  3  1  0
  2  4  1  0
  2 11  1  0
  5  6  1  0
  5  7  1  0
  5  8  1  0
  8  9  1  0
  8 36  1  0
  8 37  1  0
  9 14  1  0
  9 18  1  0
  9 19  1  0
 10 11  1  0
 10 15  1  0
 10 34  1  0
 10 35  1  0
 11 12  1  0
 11 13  1  0
 14 16  1  0
 14 20  1  0
 14 21  1  0
 15 17  1  0
 15 32  1  0
 15 33  1  0
 16 24  1  0
 16 30  1  0
 16 31  1  0
 17 22  1  0
 17 23  1  0
 17 27  1  0
 24 25  1  0
 24 26  1  0
 24 27  1  0
 27 28  1  0
 27 29  1  0
M  CHG  1   1   1
M  RAD  1   1   2
M  END
$$$$

     RDKit          3D

 37 37  0  0  0  0  0  0  0  0999 V2000
    0.1293    0.1546   -4.1817 S   0  0  0  0  0  2  0  0  0  0  0  0
    1.8952    1.3074   -4.1168 Si  0  0  0  0  0  4  0  0  0  0  0  0
    2.1787    1.8469   -2.7862 H   0  0  0  0  0  0  0  0  0  0  0  0
    3.0442    0.4209   -4.4584 H   0  0  0  0  0  0  0  0  0  0  0  0
   -1.3772    0.9542   -5.4365 Si  0  0  0  0  0  4  0  0  0  0  0  0
   -1.4824    2.4049   -5.3592 H   0  0  0  0  0  0  0  0  0  0  0  0
   -2.6881    0.4088   -4.9804 H   0  0  0  0  0  0  0  0  0  0  0  0
   -1.1341    0.3231   -7.5658 Si  0  0  0  0  0  4  0  0  0  0  0  0
   -0.8154   -1.8768   -7.6960 Si  0  0  0  0  0  4  0  0  0  0  0  0
    4.0573    3.5273   -5.9486 Si  0  0  0  0  0  4  0  0  0  0  0  0
    1.9057    2.9718   -5.5997 Si  0  0  0  0  0  4  0  0  0  0  0  0
    1.2900    2.5872   -6.8714 H   0  0  0  0  0  0  0  0  0  0  0  0
    1.2336    4.1801   -5.0491 H   0  0  0  0  0  0  0  0  0  0  0  0
    1.2095   -2.4422   -6.9789 Si  0  0  0  0  0  4  0  0  0  0  0  0
    4.4524    3.9288   -8.0908 Si  0  0  0  0  0  4  0  0  0  0  0  0
    2.7892   -1.0982   -7.7785 Si  0  0  0  0  0  4  0  0  0  0  0  0
    4.8338    2.0317   -9.2294 Si  0  0  0  0  0  4  0  0  0  0  0  0
   -1.0471   -2.3204   -9.0857 H   0  0  0  0  0  0  0  0  0  0  0  0
   -1.8039   -2.5463   -6.8214 H   0  0  0  0  0  0  0  0  0  0  0  0
    1.2275   -2.3318   -5.5106 H   0  0  0  0  0  0  0  0  0  0  0  0
    1.4866   -3.8338   -7.3314 H   0  0  0  0  0  0  0  0  0  0  0  0
    5.9014    2.2813  -10.2228 H   0  0  0  0  0  0  0  0  0  0  0  0
    5.2147    0.9547   -8.3029 H   0  0  0  0  0  0  0  0  0  0  0  0
    2.5093   -0.6754   -9.9438 Si  0  0  0  0  0  4  0  0  0  0  0  0
    3.4505   -1.4796  -10.7383 H   0  0  0  0  0  0  0  0  0  0  0  0
    1.1536   -1.0232  -10.3879 H   0  0  0  0  0  0  0  0  0  0  0  0
    2.9695    1.4855  -10.3508 Si  0  0  0  0  0  4  0  0  0  0  0  0
    3.1268    1.7443  -11.7755 H   0  0  0  0  0  0  0  0  0  0  0  0
    1.8304    2.2608   -9.7957 H   0  0  0  0  0  0  0  0  0  0  0  0
    2.8616    0.1706   -7.0611 H   0  0  0  0  0  0  0  0  0  0  0  0
    4.0900   -1.7815   -7.5873 H   0  0  0  0  0  0  0  0  0  0  0  0
    3.3253    4.6058   -8.7069 H   0  0  0  0  0  0  0  0  0  0  0  0
    5.6413    4.7951   -8.2343 H   0  0  0  0  0  0  0  0  0  0  0  0
    4.4289    4.7170   -5.1773 H   0  0  0  0  0  0  0  0  0  0  0  0
    4.9511    2.4126   -5.5329 H   0  0  0  0  0  0  0  0  0  0  0  0
    0.0026    1.0331   -8.1873 H   0  0  0  0  0  0  0  0  0  0  0  0
   -2.3478    0.6626   -8.3070 H   0  0  0  0  0  0  0  0  0  0  0  0
  1  2  1  0
  1  5  1  0
  2  3  1  0
  2  4  1  0
  2 11  1  0
  5  6  1  0
  5  7  1  0
  5  8  1  0
  8  9  1  0
  8 36  1  0
  8 37  1  0
  9 14  1  0
  9 18  1  0
  9 19  1  0
 10 11  1  0
 10 15  1  0
 10 34  1  0
 10 35  1  0
 11 12  1  0
 11 13  1  0
 14 16  1  0
 14 20  1  0
 14 21  1  0
 15 17  1  0
 15 32  1  0
 15 33  1  0
 16 24  1  0
 16 30  1  0
 16 31  1  0
 17 22  1  0
 17 23  1  0
 17 27  1  0
 24 25  1  0
 24 26  1  0
 24 27  1  0
 27 28  1  0
 27 29  1  0
M  CHG  1   1   1
M  RAD  1   1   2
M  END
$$$$

     RDKit          3D

 37 37  0  0  0  0  0  0  0  0999 V2000
    0.1293    0.1546   -4.1817 S   0  0  0  0  0  2  0  0  0  0  0  0
   -0.2063   -1.5473   -5.4084 Si  0  0  0  0  0  4  0  0  0  0  0  0
    1.0576   -2.2801   -5.6670 H   0  0  0  0  0  0  0  0  0  0  0  0
   -1.1148   -2.4647   -4.7496 H   0  0  0  0  0  0  0  0  0  0  0  0
    1.8580    1.2806   -4.8489 Si  0  0  0  0  0  4  0  0  0  0  0  0
    2.9783    0.4024   -5.1418 H   0  0  0  0  0  0  0  0  0  0  0  0
    2.2632    2.1131   -3.6792 H   0  0  0  0  0  0  0  0  0  0  0  0
    1.3337    2.6275   -6.5185 Si  0  0  0  0  0  4  0  0  0  0  0  0
    2.2579    2.0930   -8.4302 Si  0  0  0  0  0  4  0  0  0  0  0  0
   -1.4287   -2.7470   -8.6389 Si  0  0  0  0  0  4  0  0  0  0  0  0
   -1.1193   -0.9608   -7.3765 Si  0  0  0  0  0  4  0  0  0  0  0  0
   -2.4086   -0.3464   -7.0879 H   0  0  0  0  0  0  0  0  0  0  0  0
   -0.2864    0.0252   -8.0552 H   0  0  0  0  0  0  0  0  0  0  0  0
    4.0419    0.7962   -8.2449 Si  0  0  0  0  0  4  0  0  0  0  0  0
    0.4926   -3.5515   -9.4415 Si  0  0  0  0  0  4  0  0  0  0  0  0
    3.5615   -1.2487   -7.5666 Si  0  0  0  0  0  4  0  0  0  0  0  0
    1.5256   -2.1000  -10.7481 Si  0  0  0  0  0  4  0  0  0  0  0  0
    1.2671    1.4661   -9.3427 H   0  0  0  0  0  0  0  0  0  0  0  0
    2.6910    3.3380   -9.1285 H   0  0  0  0  0  0  0  0  0  0  0  0
    5.0477    1.4642   -7.4108 H   0  0  0  0  0  0  0  0  0  0  0  0
    4.6446    0.6887   -9.6050 H   0  0  0  0  0  0  0  0  0  0  0  0
    0.9975   -2.2119  -12.1367 H   0  0  0  0  0  0  0  0  0  0  0  0
    1.3732   -0.7282  -10.3098 H   0  0  0  0  0  0  0  0  0  0  0  0
    4.5863   -2.8033   -8.8416 Si  0  0  0  0  0  4  0  0  0  0  0  0
    6.0248   -2.6288   -8.8312 H   0  0  0  0  0  0  0  0  0  0  0  0
    4.2561   -4.1196   -8.2249 H   0  0  0  0  0  0  0  0  0  0  0  0
    3.7004   -2.6823  -10.8760 Si  0  0  0  0  0  4  0  0  0  0  0  0
    4.4458   -1.6318  -11.6186 H   0  0  0  0  0  0  0  0  0  0  0  0
    3.7780   -3.9746  -11.5698 H   0  0  0  0  0  0  0  0  0  0  0  0
    2.1180   -1.4768   -7.7536 H   0  0  0  0  0  0  0  0  0  0  0  0
    3.9837   -1.5118   -6.1827 H   0  0  0  0  0  0  0  0  0  0  0  0
    0.1428   -4.7391  -10.2706 H   0  0  0  0  0  0  0  0  0  0  0  0
    1.3256   -4.0352   -8.3514 H   0  0  0  0  0  0  0  0  0  0  0  0
   -2.3494   -2.4728   -9.7363 H   0  0  0  0  0  0  0  0  0  0  0  0
   -2.0166   -3.8120   -7.7872 H   0  0  0  0  0  0  0  0  0  0  0  0
    1.6399    4.0456   -6.1728 H   0  0  0  0  0  0  0  0  0  0  0  0
   -0.1490    2.5897   -6.6802 H   0  0  0  0  0  0  0  0  0  0  0  0
  1  2  1  0
  1  5  1  0
  2  3  1  0
  2  4  1  0
  2 11  1  0
  5  6  1  0
  5  7  1  0
  5  8  1  0
  8  9  1  0
  8 36  1  0
  8 37  1  0
  9 14  1  0
  9 18  1  0
  9 19  1  0
 10 11  1  0
 10 15  1  0
 10 34  1  0
 10 35  1  0
 11 12  1  0
 11 13  1  0
 14 16  1  0
 14 20  1  0
 14 21  1  0
 15 17  1  0
 15 32  1  0
 15 33  1  0
 16 24  1  0
 16 30  1  0
 16 31  1  0
 17 22  1  0
 17 23  1  0
 17 27  1  0
 24 25  1  0
 24 26  1  0
 24 27  1  0
 27 28  1  0
 27 29  1  0
M  CHG  1   1   1
M  RAD  1   1   2
M  END
$$$$

     RDKit          3D

 37 37  0  0  0  0  0  0  0  0999 V2000
    0.1293    0.1546   -4.1817 S   0  0  0  0  0  2  0  0  0  0  0  0
   -0.4582    2.1679   -4.2887 Si  0  0  0  0  0  4  0  0  0  0  0  0
    0.7237    3.0237   -4.4640 H   0  0  0  0  0  0  0  0  0  0  0  0
   -1.0741    2.5560   -2.9874 H   0  0  0  0  0  0  0  0  0  0  0  0
   -0.2898   -0.9951   -5.9015 Si  0  0  0  0  0  4  0  0  0  0  0  0
   -1.1826   -0.3534   -6.8515 H   0  0  0  0  0  0  0  0  0  0  0  0
   -0.9442   -2.2617   -5.4668 H   0  0  0  0  0  0  0  0  0  0  0  0
    1.5978   -1.5633   -6.9605 Si  0  0  0  0  0  4  0  0  0  0  0  0
    1.7843   -0.4419   -8.8780 Si  0  0  0  0  0  4  0  0  0  0  0  0
   -1.1377    4.1935   -7.2841 Si  0  0  0  0  0  4  0  0  0  0  0  0
   -1.9048    2.6136   -5.8876 Si  0  0  0  0  0  4  0  0  0  0  0  0
   -2.2205    1.3922   -6.6564 H   0  0  0  0  0  0  0  0  0  0  0  0
   -3.2027    3.1078   -5.3636 H   0  0  0  0  0  0  0  0  0  0  0  0
    1.2536   -1.7703  -10.6033 Si  0  0  0  0  0  4  0  0  0  0  0  0
   -1.3082    3.4467   -9.3977 Si  0  0  0  0  0  4  0  0  0  0  0  0
   -0.9573   -1.5708  -10.9357 Si  0  0  0  0  0  4  0  0  0  0  0  0
   -2.9436    1.8938   -9.3925 Si  0  0  0  0  0  4  0  0  0  0  0  0
    3.1614    0.0618   -9.0443 H   0  0  0  0  0  0  0  0  0  0  0  0
    0.8792    0.7206   -8.8612 H   0  0  0  0  0  0  0  0  0  0  0  0
    1.6377   -3.1537  -10.3435 H   0  0  0  0  0  0  0  0  0  0  0  0
    1.9108   -1.2753  -11.8257 H   0  0  0  0  0  0  0  0  0  0  0  0
   -2.4051    0.7489   -8.6075 H   0  0  0  0  0  0  0  0  0  0  0  0
   -4.1512    2.4237   -8.7909 H   0  0  0  0  0  0  0  0  0  0  0  0
   -1.2986    0.2702  -12.1373 Si  0  0  0  0  0  4  0  0  0  0  0  0
   -1.2782    0.0312  -13.5668 H   0  0  0  0  0  0  0  0  0  0  0  0
   -0.2615    1.2597  -11.7293 H   0  0  0  0  0  0  0  0  0  0  0  0
   -3.2623    1.1538  -11.4719 Si  0  0  0  0  0  4  0  0  0  0  0  0
   -4.3089    0.1424  -11.4395 H   0  0  0  0  0  0  0  0  0  0  0  0
   -3.6427    2.2811  -12.3281 H   0  0  0  0  0  0  0  0  0  0  0  0
   -1.4431   -2.7549  -11.6560 H   0  0  0  0  0  0  0  0  0  0  0  0
   -1.6592   -1.5252   -9.6395 H   0  0  0  0  0  0  0  0  0  0  0  0
   -0.0458    2.8073   -9.7830 H   0  0  0  0  0  0  0  0  0  0  0  0
   -1.6417    4.5332  -10.3197 H   0  0  0  0  0  0  0  0  0  0  0  0
    0.2790    4.4704   -7.0132 H   0  0  0  0  0  0  0  0  0  0  0  0
   -1.9217    5.4223   -7.1925 H   0  0  0  0  0  0  0  0  0  0  0  0
    2.7363   -1.2665   -6.0712 H   0  0  0  0  0  0  0  0  0  0  0  0
    1.6452   -2.9903   -7.2678 H   0  0  0  0  0  0  0  0  0  0  0  0
  1  2  1  0
  1  5  1  0
  2  3  1  0
  2  4  1  0
  2 11  1  0
  5  6  1  0
  5  7  1  0
  5  8  1  0
  8  9  1  0
  8 36  1  0
  8 37  1  0
  9 14  1  0
  9 18  1  0
  9 19  1  0
 10 11  1  0
 10 15  1  0
 10 34  1  0
 10 35  1  0
 11 12  1  0
 11 13  1  0
 14 16  1  0
 14 20  1  0
 14 21  1  0
 15 17  1  0
 15 32  1  0
 15 33  1  0
 16 24  1  0
 16 30  1  0
 16 31  1  0
 17 22  1  0
 17 23  1  0
 17 27  1  0
 24 25  1  0
 24 26  1  0
 24 27  1  0
 27 28  1  0
 27 29  1  0
M  CHG  1   1   1
M  RAD  1   1   2
M  END
$$$$

     RDKit          3D

 37 37  0  0  0  0  0  0  0  0999 V2000
    0.1293    0.1546   -4.1817 S   0  0  0  0  0  2  0  0  0  0  0  0
   -0.2685   -1.5331   -5.4094 Si  0  0  0  0  0  4  0  0  0  0  0  0
    0.9682   -2.3098   -5.6712 H   0  0  0  0  0  0  0  0  0  0  0  0
   -1.2077   -2.4185   -4.7498 H   0  0  0  0  0  0  0  0  0  0  0  0
    1.8955    1.2195   -4.8511 Si  0  0  0  0  0  4  0  0  0  0  0  0
    2.9835    0.3025   -5.1470 H   0  0  0  0  0  0  0  0  0  0  0  0
    2.3320    2.0360   -3.6813 H   0  0  0  0  0  0  0  0  0  0  0  0
    1.4160    2.5859   -6.5184 Si  0  0  0  0  0  4  0  0  0  0  0  0
    2.3171    2.0210   -8.4324 Si  0  0  0  0  0  4  0  0  0  0  0  0
   -1.5387   -2.6854   -8.6387 Si  0  0  0  0  0  4  0  0  0  0  0  0
   -1.1640   -0.9126   -7.3752 Si  0  0  0  0  0  4  0  0  0  0  0  0
   -2.4301   -0.2534   -7.0836 H   0  0  0  0  0  0  0  0  0  0  0  0
   -0.2979    0.0440   -8.0545 H   0  0  0  0  0  0  0  0  0  0  0  0
    4.0545    0.6618   -8.2517 Si  0  0  0  0  0  4  0  0  0  0  0  0
    0.3515   -3.5564   -9.4458 Si  0  0  0  0  0  4  0  0  0  0  0  0
    3.5034   -1.3655   -7.5746 Si  0  0  0  0  0  4  0  0  0  0  0  0
    1.4327   -2.1410  -10.7530 Si  0  0  0  0  0  4  0  0  0  0  0  0
    1.3030    1.4305   -9.3436 H   0  0  0  0  0  0  0  0  0  0  0  0
    2.7926    3.2508   -9.1302 H   0  0  0  0  0  0  0  0  0  0  0  0
    5.0848    1.2930   -7.4189 H   0  0  0  0  0  0  0  0  0  0  0  0
    4.6505    0.5345   -9.6131 H   0  0  0  0  0  0  0  0  0  0  0  0
    0.8984   -2.2328  -12.1407 H   0  0  0  0  0  0  0  0  0  0  0  0
    1.3297   -0.7652  -10.3131 H   0  0  0  0  0  0  0  0  0  0  0  0
    4.4703   -2.9540   -8.8530 Si  0  0  0  0  0  4  0  0  0  0  0  0
    5.9140   -2.8305   -8.8453 H   0  0  0  0  0  0  0  0  0  0  0  0
    4.0949   -4.2585   -8.2370 H   0  0  0  0  0  0  0  0  0  0  0  0
    3.5853   -2.7997  -10.8856 Si  0  0  0  0  0  4  0  0  0  0  0  0
    4.3660   -1.7754  -11.6287 H   0  0  0  0  0  0  0  0  0  0  0  0
    3.6160   -4.0932  -11.5808 H   0  0  0  0  0  0  0  0  0  0  0  0
    2.0524   -1.5423   -7.7590 H   0  0  0  0  0  0  0  0  0  0  0  0
    3.9186   -1.6449   -6.1917 H   0  0  0  0  0  0  0  0  0  0  0  0
   -0.0416   -4.7302  -10.2754 H   0  0  0  0  0  0  0  0  0  0  0  0
    1.1690   -4.0705   -8.3579 H   0  0  0  0  0  0  0  0  0  0  0  0
   -2.4512   -2.3777   -9.7341 H   0  0  0  0  0  0  0  0  0  0  0  0
   -2.1621   -3.7299   -7.7870 H   0  0  0  0  0  0  0  0  0  0  0  0
    1.7727    3.9919   -6.1718 H   0  0  0  0  0  0  0  0  0  0  0  0
   -0.0675    2.6006   -6.6772 H   0  0  0  0  0  0  0  0  0  0  0  0
  1  2  1  0
  1  5  1  0
  2  3  1  0
  2  4  1  0
  2 11  1  0
  5  6  1  0
  5  7  1  0
  5  8  1  0
  8  9  1  0
  8 36  1  0
  8 37  1  0
  9 14  1  0
  9 18  1  0
  9 19  1  0
 10 11  1  0
 10 15  1  0
 10 34  1  0
 10 35  1  0
 11 12  1  0
 11 13  1  0
 14 16  1  0
 14 20  1  0
 14 21  1  0
 15 17  1  0
 15 32  1  0
 15 33  1  0
 16 24  1  0
 16 30  1  0
 16 31  1  0
 17 22  1  0
 17 23  1  0
 17 27  1  0
 24 25  1  0
 24 26  1  0
 24 27  1  0
 27 28  1  0
 27 29  1  0
M  CHG  1   1   1
M  RAD  1   1   2
M  END
$$$$

     RDKit          3D

 37 37  0  0  0  0  0  0  0  0999 V2000
    0.1293    0.1546   -4.1817 S   0  0  0  0  0  2  0  0  0  0  0  0
   -0.3869    2.1875   -4.2856 Si  0  0  0  0  0  4  0  0  0  0  0  0
    0.8242    3.0012   -4.4623 H   0  0  0  0  0  0  0  0  0  0  0  0
   -0.9862    2.5957   -2.9828 H   0  0  0  0  0  0  0  0  0  0  0  0
   -0.3334   -0.9778   -5.9018 Si  0  0  0  0  0  4  0  0  0  0  0  0
   -1.2048   -0.3039   -6.8495 H   0  0  0  0  0  0  0  0  0  0  0  0
   -1.0313   -2.2209   -5.4671 H   0  0  0  0  0  0  0  0  0  0  0  0
    1.5310   -1.6112   -6.9650 Si  0  0  0  0  0  4  0  0  0  0  0  0
    1.7533   -0.4951   -8.8818 Si  0  0  0  0  0  4  0  0  0  0  0  0
   -1.0001    4.2390   -7.2777 Si  0  0  0  0  0  4  0  0  0  0  0  0
   -1.8199    2.6858   -5.8813 Si  0  0  0  0  0  4  0  0  0  0  0  0
   -2.1799    1.4771   -6.6507 H   0  0  0  0  0  0  0  0  0  0  0  0
   -3.0985    3.2249   -5.3543 H   0  0  0  0  0  0  0  0  0  0  0  0
    1.1728   -1.8021  -10.6073 Si  0  0  0  0  0  4  0  0  0  0  0  0
   -1.2008    3.5009   -9.3917 Si  0  0  0  0  0  4  0  0  0  0  0  0
   -1.0303   -1.5242  -10.9353 Si  0  0  0  0  0  4  0  0  0  0  0  0
   -2.8900    2.0068   -9.3849 Si  0  0  0  0  0  4  0  0  0  0  0  0
    3.1471   -0.0402   -9.0502 H   0  0  0  0  0  0  0  0  0  0  0  0
    0.8899    0.6987   -8.8621 H   0  0  0  0  0  0  0  0  0  0  0  0
    1.5082   -3.1984  -10.3496 H   0  0  0  0  0  0  0  0  0  0  0  0
    1.8448   -1.3293  -11.8305 H   0  0  0  0  0  0  0  0  0  0  0  0
   -2.3908    0.8427   -8.6020 H   0  0  0  0  0  0  0  0  0  0  0  0
   -4.0770    2.5784   -8.7804 H   0  0  0  0  0  0  0  0  0  0  0  0
   -1.3086    0.3290  -12.1344 Si  0  0  0  0  0  4  0  0  0  0  0  0
   -1.2993    0.0908  -13.5642 H   0  0  0  0  0  0  0  0  0  0  0  0
   -0.2364    1.2808  -11.7274 H   0  0  0  0  0  0  0  0  0  0  0  0
   -3.2385    1.2806  -11.4644 Si  0  0  0  0  0  4  0  0  0  0  0  0
   -4.3202    0.3069  -11.4310 H   0  0  0  0  0  0  0  0  0  0  0  0
   -3.5805    2.4216  -12.3188 H   0  0  0  0  0  0  0  0  0  0  0  0
   -1.5590   -2.6897  -11.6559 H   0  0  0  0  0  0  0  0  0  0  0  0
   -1.7277   -1.4552   -9.6377 H   0  0  0  0  0  0  0  0  0  0  0  0
    0.0376    2.8178   -9.7801 H   0  0  0  0  0  0  0  0  0  0  0  0
   -1.4974    4.5995  -10.3119 H   0  0  0  0  0  0  0  0  0  0  0  0
    0.4261    4.4654   -7.0092 H   0  0  0  0  0  0  0  0  0  0  0  0
   -1.7399    5.4947   -7.1834 H   0  0  0  0  0  0  0  0  0  0  0  0
    2.6809   -1.3558   -6.0776 H   0  0  0  0  0  0  0  0  0  0  0  0
    1.5273   -3.0386   -7.2738 H   0  0  0  0  0  0  0  0  0  0  0  0
  1  2  1  0
  1  5  1  0
  2  3  1  0
  2  4  1  0
  2 11  1  0
  5  6  1  0
  5  7  1  0
  5  8  1  0
  8  9  1  0
  8 36  1  0
  8 37  1  0
  9 14  1  0
  9 18  1  0
  9 19  1  0
 10 11  1  0
 10 15  1  0
 10 34  1  0
 10 35  1  0
 11 12  1  0
 11 13  1  0
 14 16  1  0
 14 20  1  0
 14 21  1  0
 15 17  1  0
 15 32  1  0
 15 33  1  0
 16 24  1  0
 16 30  1  0
 16 31  1  0
 17 22  1  0
 17 23  1  0
 17 27  1  0
 24 25  1  0
 24 26  1  0
 24 27  1  0
 27 28  1  0
 27 29  1  0
M  CHG  1   1   1
M  RAD  1   1   2
M  END
$$$$
