
     RDKit          3D

 37 37  0  0  0  0  0  0  0  0999 V2000
   -0.2024    0.1295   -4.3308 S   0  0  0  0  0  2  0  0  0  0  0  0
   -0.9727   -1.1806   -5.8159 Si  0  0  0  0  0  4  0  0  0  0  0  0
   -0.2313   -0.9008   -7.0792 H   0  0  0  0  0  0  0  0  0  0  0  0
   -0.5834   -2.5656   -5.4405 H   0  0  0  0  0  0  0  0  0  0  0  0
   -0.7054    2.1475   -4.6365 Si  0  0  0  0  0  4  0  0  0  0  0  0
   -0.6238    2.8720   -3.3360 H   0  0  0  0  0  0  0  0  0  0  0  0
   -2.1406    2.2376   -5.0326 H   0  0  0  0  0  0  0  0  0  0  0  0
    0.5007    3.1846   -6.1459 Si  0  0  0  0  0  4  0  0  0  0  0  0
    2.6325    2.6272   -6.1470 Si  0  0  0  0  0  4  0  0  0  0  0  0
   -3.5506   -0.8932   -8.3249 Si  0  0  0  0  0  4  0  0  0  0  0  0
   -3.1454   -1.0013   -6.1113 Si  0  0  0  0  0  4  0  0  0  0  0  0
   -3.7596    0.1065   -5.4044 H   0  0  0  0  0  0  0  0  0  0  0  0
   -3.7831   -2.2656   -5.6477 H   0  0  0  0  0  0  0  0  0  0  0  0
    3.0499    0.6027   -6.8818 Si  0  0  0  0  0  4  0  0  0  0  0  0
   -2.1657   -2.2978   -9.3393 Si  0  0  0  0  0  4  0  0  0  0  0  0
    2.9032    0.3803   -9.0688 Si  0  0  0  0  0  4  0  0  0  0  0  0
   -0.6217   -1.2506  -10.5386 Si  0  0  0  0  0  4  0  0  0  0  0  0
    3.3652    3.6021   -6.9804 H   0  0  0  0  0  0  0  0  0  0  0  0
    3.1558    2.7600   -4.7750 H   0  0  0  0  0  0  0  0  0  0  0  0
    4.4481    0.2671   -6.4764 H   0  0  0  0  0  0  0  0  0  0  0  0
    2.2131   -0.4090   -6.2005 H   0  0  0  0  0  0  0  0  0  0  0  0
   -0.9081   -1.5335  -11.9739 H   0  0  0  0  0  0  0  0  0  0  0  0
    0.7272   -1.8261  -10.2951 H   0  0  0  0  0  0  0  0  0  0  0  0
    1.4597    1.7489  -10.0097 Si  0  0  0  0  0  4  0  0  0  0  0  0
    1.4569    3.0284   -9.2758 H   0  0  0  0  0  0  0  0  0  0  0  0
    1.9272    2.0790  -11.3869 H   0  0  0  0  0  0  0  0  0  0  0  0
   -0.5811    0.9249  -10.1692 Si  0  0  0  0  0  4  0  0  0  0  0  0
   -1.2546    1.5956  -11.3185 H   0  0  0  0  0  0  0  0  0  0  0  0
   -1.4043    1.2702   -8.9838 H   0  0  0  0  0  0  0  0  0  0  0  0
    2.6191   -1.0434   -9.4007 H   0  0  0  0  0  0  0  0  0  0  0  0
    4.2444    0.6510   -9.6630 H   0  0  0  0  0  0  0  0  0  0  0  0
   -2.9899   -3.2077  -10.1827 H   0  0  0  0  0  0  0  0  0  0  0  0
   -1.4687   -3.1857   -8.3758 H   0  0  0  0  0  0  0  0  0  0  0  0
   -3.3142    0.4815   -8.7691 H   0  0  0  0  0  0  0  0  0  0  0  0
   -4.9581   -1.2825   -8.5134 H   0  0  0  0  0  0  0  0  0  0  0  0
    0.4396    4.6453   -5.8421 H   0  0  0  0  0  0  0  0  0  0  0  0
   -0.1181    3.0223   -7.4649 H   0  0  0  0  0  0  0  0  0  0  0  0
  1  2  1  0
  1  5  1  0
  2  3  1  0
  2  4  1  0
  2 11  1  0
  5  6  1  0
  5  7  1  0
  5  8  1  0
  8  9  1  0
  8 36  1  0
  8 37  1  0
  9 14  1  0
  9 18  1  0
  9 19  1  0
 10 11  1  0
 10 15  1  0
 10 34  1  0
 10 35  1  0
 11 12  1  0
 11 13  1  0
 14 16  1  0
 14 20  1  0
 14 21  1  0
 15 17  1  0
 15 32  1  0
 15 33  1  0
 16 24  1  0
 16 30  1  0
 16 31  1  0
 17 22  1  0
 17 23  1  0
 17 27  1  0
 24 25  1  0
 24 26  1  0
 24 27  1  0
 27 28  1  0
 27 29  1  0
M  CHG  1   1   1
M  RAD  1   1   2
M  END
$$$$

     RDKit          3D

 37 37  0  0  0  0  0  0  0  0999 V2000
   -0.2024    0.1295   -4.3308 S   0  0  0  0  0  2  0  0  0  0  0  0
   -2.0684   -0.8492   -4.7513 Si  0  0  0  0  0  4  0  0  0  0  0  0
   -2.6081   -1.3068   -3.4412 H   0  0  0  0  0  0  0  0  0  0  0  0
   -1.8784   -2.0438   -5.5639 H   0  0  0  0  0  0  0  0  0  0  0  0
    1.1452   -0.1186   -6.0095 Si  0  0  0  0  0  4  0  0  0  0  0  0
    2.5368    0.0965   -5.5943 H   0  0  0  0  0  0  0  0  0  0  0  0
    0.9859   -1.5252   -6.4501 H   0  0  0  0  0  0  0  0  0  0  0  0
    0.5524    1.1988   -7.7000 Si  0  0  0  0  0  4  0  0  0  0  0  0
    2.1584    2.7176   -8.1397 Si  0  0  0  0  0  4  0  0  0  0  0  0
   -3.5729    0.4347   -7.8647 Si  0  0  0  0  0  4  0  0  0  0  0  0
   -3.5482    0.5582   -5.6376 Si  0  0  0  0  0  4  0  0  0  0  0  0
   -4.8928    0.1596   -5.1655 H   0  0  0  0  0  0  0  0  0  0  0  0
   -3.2544    1.9003   -5.1559 H   0  0  0  0  0  0  0  0  0  0  0  0
    1.6118    4.7019   -7.3408 Si  0  0  0  0  0  4  0  0  0  0  0  0
   -3.5224    2.4618   -8.7964 Si  0  0  0  0  0  4  0  0  0  0  0  0
    0.8374    6.0713   -8.9122 Si  0  0  0  0  0  4  0  0  0  0  0  0
   -2.6163    2.2625  -10.8262 Si  0  0  0  0  0  4  0  0  0  0  0  0
    2.4848    2.7358   -9.5690 H   0  0  0  0  0  0  0  0  0  0  0  0
    3.3708    2.2506   -7.4225 H   0  0  0  0  0  0  0  0  0  0  0  0
    0.5188    4.5094   -6.3495 H   0  0  0  0  0  0  0  0  0  0  0  0
    2.7357    5.3339   -6.6717 H   0  0  0  0  0  0  0  0  0  0  0  0
   -2.0803    0.8989  -11.0462 H   0  0  0  0  0  0  0  0  0  0  0  0
   -3.6153    2.5482  -11.8406 H   0  0  0  0  0  0  0  0  0  0  0  0
   -1.1356    5.4106   -9.6978 Si  0  0  0  0  0  4  0  0  0  0  0  0
   -2.1041    5.1483   -8.6485 H   0  0  0  0  0  0  0  0  0  0  0  0
   -1.6768    6.5283  -10.5168 H   0  0  0  0  0  0  0  0  0  0  0  0
   -0.8864    3.6698  -11.0763 Si  0  0  0  0  0  4  0  0  0  0  0  0
    0.3862    3.0100  -10.7103 H   0  0  0  0  0  0  0  0  0  0  0  0
   -0.8227    4.0851  -12.4787 H   0  0  0  0  0  0  0  0  0  0  0  0
    1.7599    6.2568  -10.0144 H   0  0  0  0  0  0  0  0  0  0  0  0
    0.6368    7.3977   -8.2781 H   0  0  0  0  0  0  0  0  0  0  0  0
   -2.5794    3.2789   -7.9842 H   0  0  0  0  0  0  0  0  0  0  0  0
   -4.8199    3.1042   -8.8192 H   0  0  0  0  0  0  0  0  0  0  0  0
   -2.3415   -0.2967   -8.2686 H   0  0  0  0  0  0  0  0  0  0  0  0
   -4.7217   -0.2932   -8.3740 H   0  0  0  0  0  0  0  0  0  0  0  0
    0.2198    0.4287   -8.9069 H   0  0  0  0  0  0  0  0  0  0  0  0
   -0.6331    1.9597   -7.2830 H   0  0  0  0  0  0  0  0  0  0  0  0
  1  2  1  0
  1  5  1  0
  2  3  1  0
  2  4  1  0
  2 11  1  0
  5  6  1  0
  5  7  1  0
  5  8  1  0
  8  9  1  0
  8 36  1  0
  8 37  1  0
  9 14  1  0
  9 18  1  0
  9 19  1  0
 10 11  1  0
 10 15  1  0
 10 34  1  0
 10 35  1  0
 11 12  1  0
 11 13  1  0
 14 16  1  0
 14 20  1  0
 14 21  1  0
 15 17  1  0
 15 32  1  0
 15 33  1  0
 16 24  1  0
 16 30  1  0
 16 31  1  0
 17 22  1  0
 17 23  1  0
 17 27  1  0
 24 25  1  0
 24 26  1  0
 24 27  1  0
 27 28  1  0
 27 29  1  0
M  CHG  1   1   1
M  RAD  1   1   2
M  END
$$$$

     RDKit          3D

 37 37  0  0  0  0  0  0  0  0999 V2000
   -0.2024    0.1295   -4.3308 S   0  0  0  0  0  2  0  0  0  0  0  0
    0.3470   -1.8800   -4.8064 Si  0  0  0  0  0  4  0  0  0  0  0  0
    0.7641   -2.6268   -3.5978 H   0  0  0  0  0  0  0  0  0  0  0  0
    1.4777   -1.8822   -5.7497 H   0  0  0  0  0  0  0  0  0  0  0  0
    0.9848    1.5644   -5.3546 Si  0  0  0  0  0  4  0  0  0  0  0  0
    0.2043    2.8325   -5.4118 H   0  0  0  0  0  0  0  0  0  0  0  0
    2.2419    1.8522   -4.6627 H   0  0  0  0  0  0  0  0  0  0  0  0
    1.4128    0.9713   -7.4567 Si  0  0  0  0  0  4  0  0  0  0  0  0
   -0.3990    1.4350   -8.6853 Si  0  0  0  0  0  4  0  0  0  0  0  0
   -1.1164   -2.9936   -7.9156 Si  0  0  0  0  0  4  0  0  0  0  0  0
   -1.4571   -2.8684   -5.7283 Si  0  0  0  0  0  4  0  0  0  0  0  0
   -1.5782   -4.2203   -5.1210 H   0  0  0  0  0  0  0  0  0  0  0  0
   -2.6697   -2.1296   -5.3942 H   0  0  0  0  0  0  0  0  0  0  0  0
    0.1674    2.4134  -10.6154 Si  0  0  0  0  0  4  0  0  0  0  0  0
   -3.0261   -2.9003   -9.0668 Si  0  0  0  0  0  4  0  0  0  0  0  0
   -0.7563    1.4119  -12.3548 Si  0  0  0  0  0  4  0  0  0  0  0  0
   -4.1094   -1.0053   -8.7284 Si  0  0  0  0  0  4  0  0  0  0  0  0
   -1.3236    2.3187   -7.9424 H   0  0  0  0  0  0  0  0  0  0  0  0
   -1.0335    0.1525   -9.0214 H   0  0  0  0  0  0  0  0  0  0  0  0
   -0.3074    3.8236  -10.5982 H   0  0  0  0  0  0  0  0  0  0  0  0
    1.6377    2.4379  -10.7274 H   0  0  0  0  0  0  0  0  0  0  0  0
   -3.5934   -0.3960   -7.4728 H   0  0  0  0  0  0  0  0  0  0  0  0
   -5.5323   -1.2327   -8.5306 H   0  0  0  0  0  0  0  0  0  0  0  0
   -2.1470   -0.2236  -11.7526 Si  0  0  0  0  0  4  0  0  0  0  0  0
   -2.8203   -0.6926  -12.9966 H   0  0  0  0  0  0  0  0  0  0  0  0
   -1.4109   -1.3910  -11.2349 H   0  0  0  0  0  0  0  0  0  0  0  0
   -3.7182    0.4770  -10.3644 Si  0  0  0  0  0  4  0  0  0  0  0  0
   -5.0157    0.6933  -11.0610 H   0  0  0  0  0  0  0  0  0  0  0  0
   -3.3216    1.7832   -9.8221 H   0  0  0  0  0  0  0  0  0  0  0  0
    0.3129    0.8085  -13.1670 H   0  0  0  0  0  0  0  0  0  0  0  0
   -1.4690    2.3575  -13.2282 H   0  0  0  0  0  0  0  0  0  0  0  0
   -3.8653   -4.0295   -8.6076 H   0  0  0  0  0  0  0  0  0  0  0  0
   -2.7165   -3.0565  -10.4747 H   0  0  0  0  0  0  0  0  0  0  0  0
   -0.1667   -1.9728   -8.3203 H   0  0  0  0  0  0  0  0  0  0  0  0
   -0.5148   -4.3277   -8.1960 H   0  0  0  0  0  0  0  0  0  0  0  0
    2.5754    1.7466   -7.9151 H   0  0  0  0  0  0  0  0  0  0  0  0
    1.7495   -0.4760   -7.5379 H   0  0  0  0  0  0  0  0  0  0  0  0
  1  2  1  0
  1  5  1  0
  2  3  1  0
  2  4  1  0
  2 11  1  0
  5  6  1  0
  5  7  1  0
  5  8  1  0
  8  9  1  0
  8 36  1  0
  8 37  1  0
  9 14  1  0
  9 18  1  0
  9 19  1  0
 10 11  1  0
 10 15  1  0
 10 34  1  0
 10 35  1  0
 11 12  1  0
 11 13  1  0
 14 16  1  0
 14 20  1  0
 14 21  1  0
 15 17  1  0
 15 32  1  0
 15 33  1  0
 16 24  1  0
 16 30  1  0
 16 31  1  0
 17 22  1  0
 17 23  1  0
 17 27  1  0
 24 25  1  0
 24 26  1  0
 24 27  1  0
 27 28  1  0
 27 29  1  0
M  CHG  1   1   1
M  RAD  1   1   2
M  END
$$$$

     RDKit          3D

 37 37  0  0  0  0  0  0  0  0999 V2000
   -0.2024    0.1295   -4.3308 S   0  0  0  0  0  2  0  0  0  0  0  0
   -0.7203   -1.8155   -5.0497 Si  0  0  0  0  0  4  0  0  0  0  0  0
    0.3457   -2.2952   -5.9124 H   0  0  0  0  0  0  0  0  0  0  0  0
   -0.7619   -2.7190   -3.8690 H   0  0  0  0  0  0  0  0  0  0  0  0
   -0.7248    1.6665   -5.6963 Si  0  0  0  0  0  4  0  0  0  0  0  0
   -1.7980    1.2340   -6.6024 H   0  0  0  0  0  0  0  0  0  0  0  0
   -1.2415    2.8195   -4.9434 H   0  0  0  0  0  0  0  0  0  0  0  0
    1.0675    2.3642   -6.8412 Si  0  0  0  0  0  4  0  0  0  0  0  0
    2.3858    0.6956   -7.4094 Si  0  0  0  0  0  4  0  0  0  0  0  0
   -3.0252   -3.6063   -7.2974 Si  0  0  0  0  0  4  0  0  0  0  0  0
   -2.7135   -1.8455   -6.0179 Si  0  0  0  0  0  4  0  0  0  0  0  0
   -3.0038   -0.5648   -6.7211 H   0  0  0  0  0  0  0  0  0  0  0  0
   -3.7293   -1.9017   -4.9240 H   0  0  0  0  0  0  0  0  0  0  0  0
    2.6786    0.4119   -9.5489 Si  0  0  0  0  0  4  0  0  0  0  0  0
   -1.3673   -4.0935   -8.6406 Si  0  0  0  0  0  4  0  0  0  0  0  0
    1.2110    1.2848  -10.8892 Si  0  0  0  0  0  4  0  0  0  0  0  0
   -0.3661   -2.3665   -9.5647 Si  0  0  0  0  0  4  0  0  0  0  0  0
    3.6869    0.8768   -6.7135 H   0  0  0  0  0  0  0  0  0  0  0  0
    1.8182   -0.5551   -6.8243 H   0  0  0  0  0  0  0  0  0  0  0  0
    4.0127    0.9783   -9.9225 H   0  0  0  0  0  0  0  0  0  0  0  0
    2.8230   -1.0417   -9.8601 H   0  0  0  0  0  0  0  0  0  0  0  0
    0.5388   -1.7562   -8.6191 H   0  0  0  0  0  0  0  0  0  0  0  0
    0.4549   -2.8660  -10.7019 H   0  0  0  0  0  0  0  0  0  0  0  0
   -0.8960    1.1821  -10.2644 Si  0  0  0  0  0  4  0  0  0  0  0  0
   -1.1368    1.8300   -8.9657 H   0  0  0  0  0  0  0  0  0  0  0  0
   -1.6568    2.0188  -11.2431 H   0  0  0  0  0  0  0  0  0  0  0  0
   -1.7591   -0.8501  -10.3658 Si  0  0  0  0  0  4  0  0  0  0  0  0
   -3.0236   -0.8305   -9.5752 H   0  0  0  0  0  0  0  0  0  0  0  0
   -2.1567   -1.2228  -11.7361 H   0  0  0  0  0  0  0  0  0  0  0  0
    1.3259    0.6412  -12.2174 H   0  0  0  0  0  0  0  0  0  0  0  0
    1.5387    2.7212  -11.1199 H   0  0  0  0  0  0  0  0  0  0  0  0
   -1.8658   -4.9779   -9.7213 H   0  0  0  0  0  0  0  0  0  0  0  0
   -0.3581   -4.8780   -7.9064 H   0  0  0  0  0  0  0  0  0  0  0  0
   -3.2864   -4.7797   -6.4178 H   0  0  0  0  0  0  0  0  0  0  0  0
   -4.2557   -3.4133   -8.0824 H   0  0  0  0  0  0  0  0  0  0  0  0
    1.7620    3.3376   -5.9612 H   0  0  0  0  0  0  0  0  0  0  0  0
    0.6800    3.1006   -8.0464 H   0  0  0  0  0  0  0  0  0  0  0  0
  1  2  1  0
  1  5  1  0
  2  3  1  0
  2  4  1  0
  2 11  1  0
  5  6  1  0
  5  7  1  0
  5  8  1  0
  8  9  1  0
  8 36  1  0
  8 37  1  0
  9 14  1  0
  9 18  1  0
  9 19  1  0
 10 11  1  0
 10 15  1  0
 10 34  1  0
 10 35  1  0
 11 12  1  0
 11 13  1  0
 14 16  1  0
 14 20  1  0
 14 21  1  0
 15 17  1  0
 15 32  1  0
 15 33  1  0
 16 24  1  0
 16 30  1  0
 16 31  1  0
 17 22  1  0
 17 23  1  0
 17 27  1  0
 24 25  1  0
 24 26  1  0
 24 27  1  0
 27 28  1  0
 27 29  1  0
M  CHG  1   1   1
M  RAD  1   1   2
M  END
$$$$

     RDKit          3D

 37 37  0  0  0  0  0  0  0  0999 V2000
   -0.2024    0.1295   -4.3308 S   0  0  0  0  0  2  0  0  0  0  0  0
    0.5981    1.9980   -4.9913 Si  0  0  0  0  0  4  0  0  0  0  0  0
   -0.4272    2.7107   -5.7337 H   0  0  0  0  0  0  0  0  0  0  0  0
    0.8890    2.8015   -3.7739 H   0  0  0  0  0  0  0  0  0  0  0  0
   -0.0667   -1.3822   -5.8127 Si  0  0  0  0  0  4  0  0  0  0  0  0
    0.9949   -1.0841   -6.7843 H   0  0  0  0  0  0  0  0  0  0  0  0
    0.2915   -2.6540   -5.1667 H   0  0  0  0  0  0  0  0  0  0  0  0
   -2.0359   -1.6820   -6.8339 Si  0  0  0  0  0  4  0  0  0  0  0  0
   -3.0746    0.2235   -7.2011 Si  0  0  0  0  0  4  0  0  0  0  0  0
    3.0092    3.5048   -7.3339 Si  0  0  0  0  0  4  0  0  0  0  0  0
    2.4860    1.7449   -6.1240 Si  0  0  0  0  0  4  0  0  0  0  0  0
    2.4896    0.4820   -6.9139 H   0  0  0  0  0  0  0  0  0  0  0  0
    3.5751    1.5525   -5.1197 H   0  0  0  0  0  0  0  0  0  0  0  0
   -3.4727    0.6930   -9.2902 Si  0  0  0  0  0  4  0  0  0  0  0  0
    1.3682    4.3590   -8.5034 Si  0  0  0  0  0  4  0  0  0  0  0  0
   -2.2894   -0.3318  -10.7942 Si  0  0  0  0  0  4  0  0  0  0  0  0
    0.0085    2.8961   -9.4252 Si  0  0  0  0  0  4  0  0  0  0  0  0
   -4.3310    0.2257   -6.4064 H   0  0  0  0  0  0  0  0  0  0  0  0
   -2.2508    1.3158   -6.6036 H   0  0  0  0  0  0  0  0  0  0  0  0
   -4.9106    0.3922   -9.5766 H   0  0  0  0  0  0  0  0  0  0  0  0
   -3.3787    2.1668   -9.5133 H   0  0  0  0  0  0  0  0  0  0  0  0
   -0.9168    2.3914   -8.4379 H   0  0  0  0  0  0  0  0  0  0  0  0
   -0.7937    3.6037  -10.4609 H   0  0  0  0  0  0  0  0  0  0  0  0
   -0.1568   -0.6373  -10.3480 Si  0  0  0  0  0  4  0  0  0  0  0  0
    0.0619   -1.4006   -9.1094 H   0  0  0  0  0  0  0  0  0  0  0  0
    0.3667   -1.5275  -11.4297 H   0  0  0  0  0  0  0  0  0  0  0  0
    1.0445    1.2166  -10.4191 Si  0  0  0  0  0  4  0  0  0  0  0  0
    2.3412    0.9263   -9.7419 H   0  0  0  0  0  0  0  0  0  0  0  0
    1.3977    1.6034  -11.7977 H   0  0  0  0  0  0  0  0  0  0  0  0
   -2.3876    0.4074  -12.0731 H   0  0  0  0  0  0  0  0  0  0  0  0
   -2.8843   -1.6714  -11.0690 H   0  0  0  0  0  0  0  0  0  0  0  0
    1.9334    5.2121   -9.5763 H   0  0  0  0  0  0  0  0  0  0  0  0
    0.5733    5.2569   -7.6463 H   0  0  0  0  0  0  0  0  0  0  0  0
    3.5409    4.5550   -6.4212 H   0  0  0  0  0  0  0  0  0  0  0  0
    4.1229    3.1530   -8.2303 H   0  0  0  0  0  0  0  0  0  0  0  0
   -2.8243   -2.5755   -5.9484 H   0  0  0  0  0  0  0  0  0  0  0  0
   -1.8777   -2.3940   -8.1039 H   0  0  0  0  0  0  0  0  0  0  0  0
  1  2  1  0
  1  5  1  0
  2  3  1  0
  2  4  1  0
  2 11  1  0
  5  6  1  0
  5  7  1  0
  5  8  1  0
  8  9  1  0
  8 36  1  0
  8 37  1  0
  9 14  1  0
  9 18  1  0
  9 19  1  0
 10 11  1  0
 10 15  1  0
 10 34  1  0
 10 35  1  0
 11 12  1  0
 11 13  1  0
 14 16  1  0
 14 20  1  0
 14 21  1  0
 15 17  1  0
 15 32  1  0
 15 33  1  0
 16 24  1  0
 16 30  1  0
 16 31  1  0
 17 22  1  0
 17 23  1  0
 17 27  1  0
 24 25  1  0
 24 26  1  0
 24 27  1  0
 27 28  1  0
 27 29  1  0
M  CHG  1   1   1
M  RAD  1   1   2
M  END
$$$$

     RDKit          3D

 37 37  0  0  0  0  0  0  0  0999 V2000
   -0.2024    0.1295   -4.3308 S   0  0  0  0  0  2  0  0  0  0  0  0
    0.3835   -1.8632   -4.8809 Si  0  0  0  0  0  4  0  0  0  0  0  0
    0.7294   -2.5649   -3.6140 H   0  0  0  0  0  0  0  0  0  0  0  0
    1.5889   -1.8630   -5.6997 H   0  0  0  0  0  0  0  0  0  0  0  0
    0.3029    1.5047   -5.9275 Si  0  0  0  0  0  4  0  0  0  0  0  0
    0.3708    2.8821   -5.4243 H   0  0  0  0  0  0  0  0  0  0  0  0
    1.6478    1.0976   -6.4000 H   0  0  0  0  0  0  0  0  0  0  0  0
   -1.1126    1.2936   -7.6294 Si  0  0  0  0  0  4  0  0  0  0  0  0
   -2.2828    3.1937   -7.9449 Si  0  0  0  0  0  4  0  0  0  0  0  0
   -1.1861   -2.8824   -8.0594 Si  0  0  0  0  0  4  0  0  0  0  0  0
   -1.2938   -2.9748   -5.8332 Si  0  0  0  0  0  4  0  0  0  0  0  0
   -1.1691   -4.3990   -5.4511 H   0  0  0  0  0  0  0  0  0  0  0  0
   -2.5486   -2.4516   -5.3126 H   0  0  0  0  0  0  0  0  0  0  0  0
   -4.3332    3.0024   -7.1488 Si  0  0  0  0  0  4  0  0  0  0  0  0
   -3.1660   -2.3715   -8.9531 Si  0  0  0  0  0  4  0  0  0  0  0  0
   -5.8353    2.6165   -8.7422 Si  0  0  0  0  0  4  0  0  0  0  0  0
   -2.7979   -1.3963  -10.9264 Si  0  0  0  0  0  4  0  0  0  0  0  0
   -2.2410    3.6071   -9.3510 H   0  0  0  0  0  0  0  0  0  0  0  0
   -1.5810    4.2413   -7.1624 H   0  0  0  0  0  0  0  0  0  0  0  0
   -4.3584    1.8323   -6.2297 H   0  0  0  0  0  0  0  0  0  0  0  0
   -4.7261    4.1847   -6.4018 H   0  0  0  0  0  0  0  0  0  0  0  0
   -1.3558   -1.1288  -11.1353 H   0  0  0  0  0  0  0  0  0  0  0  0
   -3.2807   -2.2523  -11.9954 H   0  0  0  0  0  0  0  0  0  0  0  0
   -5.5837    0.6054   -9.6580 Si  0  0  0  0  0  4  0  0  0  0  0  0
   -5.5156   -0.4604   -8.6745 H   0  0  0  0  0  0  0  0  0  0  0  0
   -6.7900    0.3499  -10.4904 H   0  0  0  0  0  0  0  0  0  0  0  0
   -3.8334    0.5909  -11.0469 Si  0  0  0  0  0  4  0  0  0  0  0  0
   -2.9320    1.6814  -10.6143 H   0  0  0  0  0  0  0  0  0  0  0  0
   -4.2330    0.8245  -12.4358 H   0  0  0  0  0  0  0  0  0  0  0  0
   -5.8375    3.6254   -9.7826 H   0  0  0  0  0  0  0  0  0  0  0  0
   -7.1726    2.6434   -8.1001 H   0  0  0  0  0  0  0  0  0  0  0  0
   -3.7759   -1.3385   -8.0713 H   0  0  0  0  0  0  0  0  0  0  0  0
   -4.0541   -3.5116   -9.0450 H   0  0  0  0  0  0  0  0  0  0  0  0
   -0.2256   -1.7977   -8.3988 H   0  0  0  0  0  0  0  0  0  0  0  0
   -0.7035   -4.1183   -8.6500 H   0  0  0  0  0  0  0  0  0  0  0  0
   -0.4287    0.8919   -8.8669 H   0  0  0  0  0  0  0  0  0  0  0  0
   -2.0928    0.2588   -7.2736 H   0  0  0  0  0  0  0  0  0  0  0  0
  1  2  1  0
  1  5  1  0
  2  3  1  0
  2  4  1  0
  2 11  1  0
  5  6  1  0
  5  7  1  0
  5  8  1  0
  8  9  1  0
  8 36  1  0
  8 37  1  0
  9 14  1  0
  9 18  1  0
  9 19  1  0
 10 11  1  0
 10 15  1  0
 10 34  1  0
 10 35  1  0
 11 12  1  0
 11 13  1  0
 14 16  1  0
 14 20  1  0
 14 21  1  0
 15 17  1  0
 15 32  1  0
 15 33  1  0
 16 24  1  0
 16 30  1  0
 16 31  1  0
 17 22  1  0
 17 23  1  0
 17 27  1  0
 24 25  1  0
 24 26  1  0
 24 27  1  0
 27 28  1  0
 27 29  1  0
M  CHG  1   1   1
M  RAD  1   1   2
M  END
$$$$

     RDKit          3D

 37 37  0  0  0  0  0  0  0  0999 V2000
   -0.2024    0.1295   -4.3308 S   0  0  0  0  0  2  0  0  0  0  0  0
   -2.0367   -0.7655   -4.9653 Si  0  0  0  0  0  4  0  0  0  0  0  0
   -1.7330   -1.9031   -5.8163 H   0  0  0  0  0  0  0  0  0  0  0  0
   -2.7036   -1.3005   -3.7483 H   0  0  0  0  0  0  0  0  0  0  0  0
    0.5674    1.5016   -5.7538 Si  0  0  0  0  0  4  0  0  0  0  0  0
   -0.4943    2.0117   -6.6326 H   0  0  0  0  0  0  0  0  0  0  0  0
    1.1277    2.6618   -5.0444 H   0  0  0  0  0  0  0  0  0  0  0  0
    2.2255    0.5787   -6.9409 Si  0  0  0  0  0  4  0  0  0  0  0  0
    1.8067   -1.5211   -7.4510 Si  0  0  0  0  0  4  0  0  0  0  0  0
   -4.9789   -0.2397   -7.1189 Si  0  0  0  0  0  4  0  0  0  0  0  0
   -3.3984    0.7024   -5.9151 Si  0  0  0  0  0  4  0  0  0  0  0  0
   -2.6463    1.7449   -6.6678 H   0  0  0  0  0  0  0  0  0  0  0  0
   -4.0657    1.4563   -4.8115 H   0  0  0  0  0  0  0  0  0  0  0  0
    1.7063   -1.9722   -9.5794 Si  0  0  0  0  0  4  0  0  0  0  0  0
   -4.3112   -1.8398   -8.4545 Si  0  0  0  0  0  4  0  0  0  0  0  0
    1.3570   -0.3191  -10.9423 Si  0  0  0  0  0  4  0  0  0  0  0  0
   -2.3851   -1.4867   -9.4567 Si  0  0  0  0  0  4  0  0  0  0  0  0
    2.8201   -2.3723   -6.7738 H   0  0  0  0  0  0  0  0  0  0  0  0
    0.5118   -1.8977   -6.8106 H   0  0  0  0  0  0  0  0  0  0  0  0
    2.9933   -2.6184   -9.9868 H   0  0  0  0  0  0  0  0  0  0  0  0
    0.6913   -3.0383   -9.8320 H   0  0  0  0  0  0  0  0  0  0  0  0
   -1.2977   -1.7525   -8.5442 H   0  0  0  0  0  0  0  0  0  0  0  0
   -2.2666   -2.4577  -10.5791 H   0  0  0  0  0  0  0  0  0  0  0  0
   -0.0763    1.2202  -10.2966 Si  0  0  0  0  0  4  0  0  0  0  0  0
    0.3028    1.8527   -9.0236 H   0  0  0  0  0  0  0  0  0  0  0  0
    0.0225    2.3225  -11.3025 H   0  0  0  0  0  0  0  0  0  0  0  0
   -2.1798    0.5419  -10.3077 Si  0  0  0  0  0  4  0  0  0  0  0  0
   -2.9635    1.5273   -9.5083 H   0  0  0  0  0  0  0  0  0  0  0  0
   -2.7713    0.5707  -11.6583 H   0  0  0  0  0  0  0  0  0  0  0  0
    0.8978   -0.8542  -12.2439 H   0  0  0  0  0  0  0  0  0  0  0  0
    2.6481    0.3676  -11.2343 H   0  0  0  0  0  0  0  0  0  0  0  0
   -5.3446   -2.0633   -9.4940 H   0  0  0  0  0  0  0  0  0  0  0  0
   -4.2170   -3.1009   -7.6971 H   0  0  0  0  0  0  0  0  0  0  0  0
   -6.0044   -0.7913   -6.1899 H   0  0  0  0  0  0  0  0  0  0  0  0
   -5.6666    0.8009   -7.9010 H   0  0  0  0  0  0  0  0  0  0  0  0
    3.4471    0.7081   -6.1071 H   0  0  0  0  0  0  0  0  0  0  0  0
    2.4845    1.3285   -8.1719 H   0  0  0  0  0  0  0  0  0  0  0  0
  1  2  1  0
  1  5  1  0
  2  3  1  0
  2  4  1  0
  2 11  1  0
  5  6  1  0
  5  7  1  0
  5  8  1  0
  8  9  1  0
  8 36  1  0
  8 37  1  0
  9 14  1  0
  9 18  1  0
  9 19  1  0
 10 11  1  0
 10 15  1  0
 10 34  1  0
 10 35  1  0
 11 12  1  0
 11 13  1  0
 14 16  1  0
 14 20  1  0
 14 21  1  0
 15 17  1  0
 15 32  1  0
 15 33  1  0
 16 24  1  0
 16 30  1  0
 16 31  1  0
 17 22  1  0
 17 23  1  0
 17 27  1  0
 24 25  1  0
 24 26  1  0
 24 27  1  0
 27 28  1  0
 27 29  1  0
M  CHG  1   1   1
M  RAD  1   1   2
M  END
$$$$

     RDKit          3D

 37 37  0  0  0  0  0  0  0  0999 V2000
   -0.2024    0.1295   -4.3308 S   0  0  0  0  0  2  0  0  0  0  0  0
    1.7279    0.9286   -4.7800 Si  0  0  0  0  0  4  0  0  0  0  0  0
    2.4441    1.3357   -3.5496 H   0  0  0  0  0  0  0  0  0  0  0  0
    1.5924    2.1186   -5.6367 H   0  0  0  0  0  0  0  0  0  0  0  0
   -1.7737    1.2242   -5.2523 Si  0  0  0  0  0  4  0  0  0  0  0  0
   -2.9503    0.3160   -5.3574 H   0  0  0  0  0  0  0  0  0  0  0  0
   -2.1851    2.3884   -4.4668 H   0  0  0  0  0  0  0  0  0  0  0  0
   -1.2640    1.8667   -7.3214 Si  0  0  0  0  0  4  0  0  0  0  0  0
   -1.5478    0.1096   -8.6775 Si  0  0  0  0  0  4  0  0  0  0  0  0
    2.9441   -0.1734   -7.9979 Si  0  0  0  0  0  4  0  0  0  0  0  0
    2.8914   -0.6844   -5.8410 Si  0  0  0  0  0  4  0  0  0  0  0  0
    4.2580   -0.7009   -5.2550 H   0  0  0  0  0  0  0  0  0  0  0  0
    2.2940   -1.9917   -5.5921 H   0  0  0  0  0  0  0  0  0  0  0  0
   -2.6125    0.7049  -10.5525 Si  0  0  0  0  0  4  0  0  0  0  0  0
    3.0402   -1.9927   -9.2870 Si  0  0  0  0  0  4  0  0  0  0  0  0
   -1.5444    0.0256  -12.3635 Si  0  0  0  0  0  4  0  0  0  0  0  0
    1.2797   -3.2986   -9.0151 Si  0  0  0  0  0  4  0  0  0  0  0  0
   -2.3141   -0.9579   -7.9985 H   0  0  0  0  0  0  0  0  0  0  0  0
   -0.2096   -0.3546   -9.0698 H   0  0  0  0  0  0  0  0  0  0  0  0
   -3.9623    0.0787  -10.5595 H   0  0  0  0  0  0  0  0  0  0  0  0
   -2.7981    2.1680  -10.5548 H   0  0  0  0  0  0  0  0  0  0  0  0
    0.6379   -2.9453   -7.7199 H   0  0  0  0  0  0  0  0  0  0  0  0
    1.6632   -4.6987   -8.9254 H   0  0  0  0  0  0  0  0  0  0  0  0
    0.2416   -1.2181  -11.8790 Si  0  0  0  0  0  4  0  0  0  0  0  0
    0.7611   -1.7434  -13.1733 H   0  0  0  0  0  0  0  0  0  0  0  0
    1.3304   -0.3984  -11.3173 H   0  0  0  0  0  0  0  0  0  0  0  0
   -0.2621   -2.9535  -10.6059 Si  0  0  0  0  0  4  0  0  0  0  0  0
   -0.3475   -4.2126  -11.3953 H   0  0  0  0  0  0  0  0  0  0  0  0
   -1.5949   -2.7428  -10.0255 H   0  0  0  0  0  0  0  0  0  0  0  0
   -1.0736    1.2108  -13.0988 H   0  0  0  0  0  0  0  0  0  0  0  0
   -2.4208   -0.7205  -13.2800 H   0  0  0  0  0  0  0  0  0  0  0  0
    4.2610   -2.7347   -8.9003 H   0  0  0  0  0  0  0  0  0  0  0  0
    3.1396   -1.5659  -10.6692 H   0  0  0  0  0  0  0  0  0  0  0  0
    1.8200    0.6859   -8.3230 H   0  0  0  0  0  0  0  0  0  0  0  0
    4.2004    0.5894   -8.2433 H   0  0  0  0  0  0  0  0  0  0  0  0
   -2.1681    2.9679   -7.6861 H   0  0  0  0  0  0  0  0  0  0  0  0
    0.1367    2.3647   -7.3887 H   0  0  0  0  0  0  0  0  0  0  0  0
  1  2  1  0
  1  5  1  0
  2  3  1  0
  2  4  1  0
  2 11  1  0
  5  6  1  0
  5  7  1  0
  5  8  1  0
  8  9  1  0
  8 36  1  0
  8 37  1  0
  9 14  1  0
  9 18  1  0
  9 19  1  0
 10 11  1  0
 10 15  1  0
 10 34  1  0
 10 35  1  0
 11 12  1  0
 11 13  1  0
 14 16  1  0
 14 20  1  0
 14 21  1  0
 15 17  1  0
 15 32  1  0
 15 33  1  0
 16 24  1  0
 16 30  1  0
 16 31  1  0
 17 22  1  0
 17 23  1  0
 17 27  1  0
 24 25  1  0
 24 26  1  0
 24 27  1  0
 27 28  1  0
 27 29  1  0
M  CHG  1   1   1
M  RAD  1   1   2
M  END
$$$$

     RDKit          3D

 37 37  0  0  0  0  0  0  0  0999 V2000
   -0.2024    0.1295   -4.3308 S   0  0  0  0  0  2  0  0  0  0  0  0
   -0.0219    2.1639   -4.9611 Si  0  0  0  0  0  4  0  0  0  0  0  0
   -1.2133    2.5306   -5.7070 H   0  0  0  0  0  0  0  0  0  0  0  0
   -0.0057    3.0006   -3.7316 H   0  0  0  0  0  0  0  0  0  0  0  0
    0.4100   -1.2427   -5.8280 Si  0  0  0  0  0  4  0  0  0  0  0  0
    1.3320   -0.6138   -6.7842 H   0  0  0  0  0  0  0  0  0  0  0  0
    1.1435   -2.3478   -5.1924 H   0  0  0  0  0  0  0  0  0  0  0  0
   -1.3591   -2.1288   -6.8746 Si  0  0  0  0  0  4  0  0  0  0  0  0
   -2.9392   -0.6386   -7.2319 Si  0  0  0  0  0  4  0  0  0  0  0  0
    1.8135    4.3821   -7.2595 Si  0  0  0  0  0  4  0  0  0  0  0  0
    1.8585    2.5299   -6.0753 Si  0  0  0  0  0  4  0  0  0  0  0  0
    2.2626    1.3428   -6.8794 H   0  0  0  0  0  0  0  0  0  0  0  0
    2.9459    2.6735   -5.0611 H   0  0  0  0  0  0  0  0  0  0  0  0
   -3.4492   -0.2876   -9.3200 Si  0  0  0  0  0  4  0  0  0  0  0  0
   -0.0039    4.6968   -8.4376 Si  0  0  0  0  0  4  0  0  0  0  0  0
   -1.9940   -0.8694  -10.8221 Si  0  0  0  0  0  4  0  0  0  0  0  0
   -0.8311    2.8953   -9.3910 Si  0  0  0  0  0  4  0  0  0  0  0  0
   -4.1389   -1.0408   -6.4514 H   0  0  0  0  0  0  0  0  0  0  0  0
   -2.5028    0.6479   -6.6130 H   0  0  0  0  0  0  0  0  0  0  0  0
   -4.7188   -1.0188   -9.6259 H   0  0  0  0  0  0  0  0  0  0  0  0
   -3.8194    1.1447   -9.5254 H   0  0  0  0  0  0  0  0  0  0  0  0
   -1.5592    2.1127   -8.4199 H   0  0  0  0  0  0  0  0  0  0  0  0
   -1.8070    3.3312  -10.4276 H   0  0  0  0  0  0  0  0  0  0  0  0
    0.1239   -0.4990  -10.3553 Si  0  0  0  0  0  4  0  0  0  0  0  0
    0.5615   -1.1732   -9.1231 H   0  0  0  0  0  0  0  0  0  0  0  0
    0.9073   -1.1654  -11.4411 H   0  0  0  0  0  0  0  0  0  0  0  0
    0.6854    1.6383  -10.3921 Si  0  0  0  0  0  4  0  0  0  0  0  0
    2.0029    1.7585   -9.7036 H   0  0  0  0  0  0  0  0  0  0  0  0
    0.9097    2.1358  -11.7621 H   0  0  0  0  0  0  0  0  0  0  0  0
   -2.3094   -0.1799  -12.0935 H   0  0  0  0  0  0  0  0  0  0  0  0
   -2.1380   -2.3238  -11.1186 H   0  0  0  0  0  0  0  0  0  0  0  0
    0.2737    5.6991   -9.4944 H   0  0  0  0  0  0  0  0  0  0  0  0
   -1.0460    5.2889   -7.5795 H   0  0  0  0  0  0  0  0  0  0  0  0
    1.9834    5.5329   -6.3291 H   0  0  0  0  0  0  0  0  0  0  0  0
    2.9877    4.4090   -8.1472 H   0  0  0  0  0  0  0  0  0  0  0  0
   -1.8348   -3.2365   -6.0081 H   0  0  0  0  0  0  0  0  0  0  0  0
   -0.9771   -2.7375   -8.1506 H   0  0  0  0  0  0  0  0  0  0  0  0
  1  2  1  0
  1  5  1  0
  2  3  1  0
  2  4  1  0
  2 11  1  0
  5  6  1  0
  5  7  1  0
  5  8  1  0
  8  9  1  0
  8 36  1  0
  8 37  1  0
  9 14  1  0
  9 18  1  0
  9 19  1  0
 10 11  1  0
 10 15  1  0
 10 34  1  0
 10 35  1  0
 11 12  1  0
 11 13  1  0
 14 16  1  0
 14 20  1  0
 14 21  1  0
 15 17  1  0
 15 32  1  0
 15 33  1  0
 16 24  1  0
 16 30  1  0
 16 31  1  0
 17 22  1  0
 17 23  1  0
 17 27  1  0
 24 25  1  0
 24 26  1  0
 24 27  1  0
 27 28  1  0
 27 29  1  0
M  CHG  1   1   1
M  RAD  1   1   2
M  END
$$$$

     RDKit          3D

 37 37  0  0  0  0  0  0  0  0999 V2000
   -0.2024    0.1295   -4.3308 S   0  0  0  0  0  2  0  0  0  0  0  0
    0.3133    1.5888   -5.7868 Si  0  0  0  0  0  4  0  0  0  0  0  0
   -0.5016    1.3061   -7.0033 H   0  0  0  0  0  0  0  0  0  0  0  0
   -0.1724    2.9058   -5.2963 H   0  0  0  0  0  0  0  0  0  0  0  0
    0.4618   -1.8088   -4.8003 Si  0  0  0  0  0  4  0  0  0  0  0  0
    0.5585   -2.6077   -3.5452 H   0  0  0  0  0  0  0  0  0  0  0  0
    1.8608   -1.7341   -5.3122 H   0  0  0  0  0  0  0  0  0  0  0  0
   -0.7631   -2.8766   -6.2727 Si  0  0  0  0  0  4  0  0  0  0  0  0
   -2.9306   -2.5345   -6.0723 Si  0  0  0  0  0  4  0  0  0  0  0  0
    2.6873    1.6963   -8.5026 Si  0  0  0  0  0  4  0  0  0  0  0  0
    2.4607    1.6427   -6.2617 Si  0  0  0  0  0  4  0  0  0  0  0  0
    3.2340    0.5644   -5.6756 H   0  0  0  0  0  0  0  0  0  0  0  0
    3.0126    2.9369   -5.7713 H   0  0  0  0  0  0  0  0  0  0  0  0
   -3.5978   -0.5244   -6.6443 Si  0  0  0  0  0  4  0  0  0  0  0  0
    1.0956    3.0096   -9.3159 Si  0  0  0  0  0  4  0  0  0  0  0  0
   -3.6567   -0.1696   -8.8180 Si  0  0  0  0  0  4  0  0  0  0  0  0
   -0.4376    1.8812  -10.4540 Si  0  0  0  0  0  4  0  0  0  0  0  0
   -3.6351   -3.5304   -6.9052 H   0  0  0  0  0  0  0  0  0  0  0  0
   -3.3221   -2.7934   -4.6746 H   0  0  0  0  0  0  0  0  0  0  0  0
   -4.9825   -0.3521   -6.1108 H   0  0  0  0  0  0  0  0  0  0  0  0
   -2.8062    0.5267   -5.9687 H   0  0  0  0  0  0  0  0  0  0  0  0
   -0.3005    2.2691  -11.8868 H   0  0  0  0  0  0  0  0  0  0  0  0
   -1.8097    2.3057  -10.0703 H   0  0  0  0  0  0  0  0  0  0  0  0
   -2.1742   -1.3346   -9.9524 Si  0  0  0  0  0  4  0  0  0  0  0  0
   -1.9889   -2.6456   -9.3024 H   0  0  0  0  0  0  0  0  0  0  0  0
   -2.7222   -1.6338  -11.3069 H   0  0  0  0  0  0  0  0  0  0  0  0
   -0.2410   -0.3045  -10.2192 Si  0  0  0  0  0  4  0  0  0  0  0  0
    0.3941   -0.8412  -11.4572 H   0  0  0  0  0  0  0  0  0  0  0  0
    0.7076   -0.6304   -9.1256 H   0  0  0  0  0  0  0  0  0  0  0  0
   -3.5373    1.2913   -9.0815 H   0  0  0  0  0  0  0  0  0  0  0  0
   -5.0113   -0.5393   -9.3213 H   0  0  0  0  0  0  0  0  0  0  0  0
    1.7563    4.0416  -10.1627 H   0  0  0  0  0  0  0  0  0  0  0  0
    0.4010    3.7700   -8.2474 H   0  0  0  0  0  0  0  0  0  0  0  0
    2.5456    0.3312   -9.0120 H   0  0  0  0  0  0  0  0  0  0  0  0
    4.0309    2.2332   -8.7758 H   0  0  0  0  0  0  0  0  0  0  0  0
   -0.5388   -4.3384   -6.0664 H   0  0  0  0  0  0  0  0  0  0  0  0
   -0.2752   -2.5819   -7.6233 H   0  0  0  0  0  0  0  0  0  0  0  0
  1  2  1  0
  1  5  1  0
  2  3  1  0
  2  4  1  0
  2 11  1  0
  5  6  1  0
  5  7  1  0
  5  8  1  0
  8  9  1  0
  8 36  1  0
  8 37  1  0
  9 14  1  0
  9 18  1  0
  9 19  1  0
 10 11  1  0
 10 15  1  0
 10 34  1  0
 10 35  1  0
 11 12  1  0
 11 13  1  0
 14 16  1  0
 14 20  1  0
 14 21  1  0
 15 17  1  0
 15 32  1  0
 15 33  1  0
 16 24  1  0
 16 30  1  0
 16 31  1  0
 17 22  1  0
 17 23  1  0
 17 27  1  0
 24 25  1  0
 24 26  1  0
 24 27  1  0
 27 28  1  0
 27 29  1  0
M  CHG  1   1   1
M  RAD  1   1   2
M  END
$$$$

     RDKit          3D

 37 37  0  0  0  0  0  0  0  0999 V2000
   -0.2024    0.1295   -4.3308 S   0  0  0  0  0  2  0  0  0  0  0  0
    0.6602   -1.7644   -4.8157 Si  0  0  0  0  0  4  0  0  0  0  0  0
    1.1854   -2.4439   -3.6096 H   0  0  0  0  0  0  0  0  0  0  0  0
    1.7809   -1.5811   -5.7532 H   0  0  0  0  0  0  0  0  0  0  0  0
    0.7468    1.7412   -5.3397 Si  0  0  0  0  0  4  0  0  0  0  0  0
   -0.2243    2.8701   -5.3933 H   0  0  0  0  0  0  0  0  0  0  0  0
    1.9396    2.2197   -4.6396 H   0  0  0  0  0  0  0  0  0  0  0  0
    1.2720    1.2377   -7.4432 Si  0  0  0  0  0  4  0  0  0  0  0  0
   -0.5852    1.4170   -8.6783 Si  0  0  0  0  0  4  0  0  0  0  0  0
   -0.5955   -3.0744   -7.9391 Si  0  0  0  0  0  4  0  0  0  0  0  0
   -0.9608   -3.0197   -5.7529 Si  0  0  0  0  0  4  0  0  0  0  0  0
   -0.8688   -4.3778   -5.1545 H   0  0  0  0  0  0  0  0  0  0  0  0
   -2.2764   -2.4845   -5.4206 H   0  0  0  0  0  0  0  0  0  0  0  0
   -0.1729    2.4859  -10.5994 Si  0  0  0  0  0  4  0  0  0  0  0  0
   -2.4910   -3.2767   -9.0996 Si  0  0  0  0  0  4  0  0  0  0  0  0
   -0.9192    1.3627  -12.3496 Si  0  0  0  0  0  4  0  0  0  0  0  0
   -3.8622   -1.5796   -8.7553 Si  0  0  0  0  0  4  0  0  0  0  0  0
   -1.6412    2.1381   -7.9348 H   0  0  0  0  0  0  0  0  0  0  0  0
   -1.0072    0.0526   -9.0254 H   0  0  0  0  0  0  0  0  0  0  0  0
   -0.8651    3.8030  -10.5761 H   0  0  0  0  0  0  0  0  0  0  0  0
    1.2755    2.7437  -10.7037 H   0  0  0  0  0  0  0  0  0  0  0  0
   -3.4544   -0.9048   -7.4934 H   0  0  0  0  0  0  0  0  0  0  0  0
   -5.2319   -2.0307   -8.5663 H   0  0  0  0  0  0  0  0  0  0  0  0
   -2.0358   -0.4764  -11.7645 Si  0  0  0  0  0  4  0  0  0  0  0  0
   -2.6212   -1.0376  -13.0148 H   0  0  0  0  0  0  0  0  0  0  0  0
   -1.1262   -1.5161  -11.2502 H   0  0  0  0  0  0  0  0  0  0  0  0
   -3.7038   -0.0429  -10.3802 Si  0  0  0  0  0  4  0  0  0  0  0  0
   -5.0164   -0.0300  -11.0822 H   0  0  0  0  0  0  0  0  0  0  0  0
   -3.5213    1.3059   -9.8280 H   0  0  0  0  0  0  0  0  0  0  0  0
    0.2354    0.9417  -13.1600 H   0  0  0  0  0  0  0  0  0  0  0  0
   -1.7690    2.1894  -13.2209 H   0  0  0  0  0  0  0  0  0  0  0  0
   -3.1428   -4.5277   -8.6517 H   0  0  0  0  0  0  0  0  0  0  0  0
   -2.1548   -3.3724  -10.5069 H   0  0  0  0  0  0  0  0  0  0  0  0
    0.1822   -1.9134   -8.3328 H   0  0  0  0  0  0  0  0  0  0  0  0
    0.2109   -4.2945   -8.2245 H   0  0  0  0  0  0  0  0  0  0  0  0
    2.2991    2.1904   -7.8908 H   0  0  0  0  0  0  0  0  0  0  0  0
    1.8340   -0.1374   -7.5314 H   0  0  0  0  0  0  0  0  0  0  0  0
  1  2  1  0
  1  5  1  0
  2  3  1  0
  2  4  1  0
  2 11  1  0
  5  6  1  0
  5  7  1  0
  5  8  1  0
  8  9  1  0
  8 36  1  0
  8 37  1  0
  9 14  1  0
  9 18  1  0
  9 19  1  0
 10 11  1  0
 10 15  1  0
 10 34  1  0
 10 35  1  0
 11 12  1  0
 11 13  1  0
 14 16  1  0
 14 20  1  0
 14 21  1  0
 15 17  1  0
 15 32  1  0
 15 33  1  0
 16 24  1  0
 16 30  1  0
 16 31  1  0
 17 22  1  0
 17 23  1  0
 17 27  1  0
 24 25  1  0
 24 26  1  0
 24 27  1  0
 27 28  1  0
 27 29  1  0
M  CHG  1   1   1
M  RAD  1   1   2
M  END
$$$$

     RDKit          3D

 37 37  0  0  0  0  0  0  0  0999 V2000
   -0.2024    0.1295   -4.3308 S   0  0  0  0  0  2  0  0  0  0  0  0
   -1.2620    1.9613   -4.6280 Si  0  0  0  0  0  4  0  0  0  0  0  0
   -1.7408    2.5231   -3.3444 H   0  0  0  0  0  0  0  0  0  0  0  0
   -2.4373    1.7289   -5.4841 H   0  0  0  0  0  0  0  0  0  0  0  0
   -1.0908   -1.5036   -5.3603 Si  0  0  0  0  0  4  0  0  0  0  0  0
   -0.0341   -2.5352   -5.5600 H   0  0  0  0  0  0  0  0  0  0  0  0
   -2.1753   -2.1260   -4.5999 H   0  0  0  0  0  0  0  0  0  0  0  0
   -1.8313   -0.9350   -7.3807 Si  0  0  0  0  0  4  0  0  0  0  0  0
   -0.0753   -0.8771   -8.7665 Si  0  0  0  0  0  4  0  0  0  0  0  0
   -0.3890    3.5494   -7.7528 Si  0  0  0  0  0  4  0  0  0  0  0  0
    0.1611    3.4079   -5.6096 Si  0  0  0  0  0  4  0  0  0  0  0  0
    0.0032    4.7172   -4.9225 H   0  0  0  0  0  0  0  0  0  0  0  0
    1.5411    2.9767   -5.4154 H   0  0  0  0  0  0  0  0  0  0  0  0
   -0.5536   -1.8718  -10.7121 Si  0  0  0  0  0  4  0  0  0  0  0  0
    1.3784    3.9861   -9.0435 Si  0  0  0  0  0  4  0  0  0  0  0  0
   -0.0555   -0.5911  -12.4422 Si  0  0  0  0  0  4  0  0  0  0  0  0
    2.9142    2.4039   -8.9140 Si  0  0  0  0  0  4  0  0  0  0  0  0
    1.0971   -1.5393   -8.1544 H   0  0  0  0  0  0  0  0  0  0  0  0
    0.1974    0.5370   -9.0602 H   0  0  0  0  0  0  0  0  0  0  0  0
    0.2487   -3.1199  -10.8250 H   0  0  0  0  0  0  0  0  0  0  0  0
   -1.9781   -2.2536  -10.7182 H   0  0  0  0  0  0  0  0  0  0  0  0
    2.6728    1.6266   -7.6683 H   0  0  0  0  0  0  0  0  0  0  0  0
    4.2511    2.9663   -8.8053 H   0  0  0  0  0  0  0  0  0  0  0  0
    0.9441    1.3068  -11.8334 Si  0  0  0  0  0  4  0  0  0  0  0  0
    1.3725    1.9866  -13.0885 H   0  0  0  0  0  0  0  0  0  0  0  0
   -0.0052    2.2299  -11.1857 H   0  0  0  0  0  0  0  0  0  0  0  0
    2.7531    0.9509  -10.6138 Si  0  0  0  0  0  4  0  0  0  0  0  0
    3.9985    1.0955  -11.4160 H   0  0  0  0  0  0  0  0  0  0  0  0
    2.7339   -0.4373  -10.1338 H   0  0  0  0  0  0  0  0  0  0  0  0
   -1.3057   -0.2325  -13.1318 H   0  0  0  0  0  0  0  0  0  0  0  0
    0.7863   -1.2882  -13.4272 H   0  0  0  0  0  0  0  0  0  0  0  0
    1.9555    5.2645   -8.5712 H   0  0  0  0  0  0  0  0  0  0  0  0
    0.9187    4.1282  -10.4114 H   0  0  0  0  0  0  0  0  0  0  0  0
   -1.0944    2.3461   -8.1556 H   0  0  0  0  0  0  0  0  0  0  0  0
   -1.3183    4.7051   -7.8977 H   0  0  0  0  0  0  0  0  0  0  0  0
   -2.8066   -1.9508   -7.8048 H   0  0  0  0  0  0  0  0  0  0  0  0
   -2.5147    0.3863   -7.3390 H   0  0  0  0  0  0  0  0  0  0  0  0
  1  2  1  0
  1  5  1  0
  2  3  1  0
  2  4  1  0
  2 11  1  0
  5  6  1  0
  5  7  1  0
  5  8  1  0
  8  9  1  0
  8 36  1  0
  8 37  1  0
  9 14  1  0
  9 18  1  0
  9 19  1  0
 10 11  1  0
 10 15  1  0
 10 34  1  0
 10 35  1  0
 11 12  1  0
 11 13  1  0
 14 16  1  0
 14 20  1  0
 14 21  1  0
 15 17  1  0
 15 32  1  0
 15 33  1  0
 16 24  1  0
 16 30  1  0
 16 31  1  0
 17 22  1  0
 17 23  1  0
 17 27  1  0
 24 25  1  0
 24 26  1  0
 24 27  1  0
 27 28  1  0
 27 29  1  0
M  CHG  1   1   1
M  RAD  1   1   2
M  END
$$$$
