
     RDKit          3D

 37 37  0  0  0  0  0  0  0  0999 V2000
    0.1339    0.0743    0.9903 S   0  0  0  0  0  2  0  0  0  0  0  0
   -0.7932   -1.2573    2.3840 Si  0  0  0  0  0  4  0  0  0  0  0  0
    0.1849   -1.7945    3.3142 H   0  0  0  0  0  0  0  0  0  0  0  0
   -1.3205   -2.4083    1.5966 H   0  0  0  0  0  0  0  0  0  0  0  0
    1.5334    1.3745    1.8784 Si  0  0  0  0  0  4  0  0  0  0  0  0
    1.2789    2.7786    1.4472 H   0  0  0  0  0  0  0  0  0  0  0  0
    2.9055    1.0667    1.3967 H   0  0  0  0  0  0  0  0  0  0  0  0
    1.5421    1.3223    4.0808 Si  0  0  0  0  0  4  0  0  0  0  0  0
    2.8493   -0.3021    4.8885 Si  0  0  0  0  0  4  0  0  0  0  0  0
   -3.1215   -1.1468    5.2482 Si  0  0  0  0  0  4  0  0  0  0  0  0
   -2.4923   -0.2385    3.3398 Si  0  0  0  0  0  4  0  0  0  0  0  0
   -3.6115   -0.1789    2.3578 H   0  0  0  0  0  0  0  0  0  0  0  0
   -2.1107    1.1816    3.5769 H   0  0  0  0  0  0  0  0  0  0  0  0
    1.6436   -1.5509    6.2662 Si  0  0  0  0  0  4  0  0  0  0  0  0
   -2.5818   -3.2787    5.4267 Si  0  0  0  0  0  4  0  0  0  0  0  0
    1.4733   -0.6951    8.2914 Si  0  0  0  0  0  4  0  0  0  0  0  0
   -1.3543   -3.6863    7.2585 Si  0  0  0  0  0  4  0  0  0  0  0  0
    3.2510   -1.1453    3.7470 H   0  0  0  0  0  0  0  0  0  0  0  0
    4.0644    0.2241    5.5035 H   0  0  0  0  0  0  0  0  0  0  0  0
    0.2829   -1.6621    5.7087 H   0  0  0  0  0  0  0  0  0  0  0  0
    2.2836   -2.8774    6.3672 H   0  0  0  0  0  0  0  0  0  0  0  0
    0.0744   -3.7763    6.9398 H   0  0  0  0  0  0  0  0  0  0  0  0
   -1.7461   -5.0478    7.7056 H   0  0  0  0  0  0  0  0  0  0  0  0
   -0.6375   -0.4580    8.9439 Si  0  0  0  0  0  4  0  0  0  0  0  0
   -0.6039    0.0486   10.3438 H   0  0  0  0  0  0  0  0  0  0  0  0
   -1.2997    0.6037    8.1587 H   0  0  0  0  0  0  0  0  0  0  0  0
   -1.8106   -2.2945    8.8986 Si  0  0  0  0  0  4  0  0  0  0  0  0
   -3.2575   -1.9494    8.8281 H   0  0  0  0  0  0  0  0  0  0  0  0
   -1.6454   -3.0131   10.1935 H   0  0  0  0  0  0  0  0  0  0  0  0
    2.2175   -1.4779    9.3017 H   0  0  0  0  0  0  0  0  0  0  0  0
    2.0893    0.6487    8.2825 H   0  0  0  0  0  0  0  0  0  0  0  0
   -3.7865   -4.1336    5.3943 H   0  0  0  0  0  0  0  0  0  0  0  0
   -1.7801   -3.6613    4.2388 H   0  0  0  0  0  0  0  0  0  0  0  0
   -4.6025   -1.0229    5.3436 H   0  0  0  0  0  0  0  0  0  0  0  0
   -2.5873   -0.3467    6.3675 H   0  0  0  0  0  0  0  0  0  0  0  0
    0.1803    1.2458    4.6447 H   0  0  0  0  0  0  0  0  0  0  0  0
    2.1096    2.6104    4.5700 H   0  0  0  0  0  0  0  0  0  0  0  0
  1  2  1  0
  1  5  1  0
  2  3  1  0
  2  4  1  0
  2 11  1  0
  5  6  1  0
  5  7  1  0
  5  8  1  0
  8  9  1  0
  8 36  1  0
  8 37  1  0
  9 14  1  0
  9 18  1  0
  9 19  1  0
 10 11  1  0
 10 15  1  0
 10 34  1  0
 10 35  1  0
 11 12  1  0
 11 13  1  0
 14 16  1  0
 14 20  1  0
 14 21  1  0
 15 17  1  0
 15 32  1  0
 15 33  1  0
 16 24  1  0
 16 30  1  0
 16 31  1  0
 17 22  1  0
 17 23  1  0
 17 27  1  0
 24 25  1  0
 24 26  1  0
 24 27  1  0
 27 28  1  0
 27 29  1  0
M  CHG  1   1   1
M  RAD  1   1   2
M  END
$$$$

     RDKit          3D

 37 37  0  0  0  0  0  0  0  0999 V2000
    0.1339    0.0743    0.9903 S   0  0  0  0  0  2  0  0  0  0  0  0
   -1.4134   -0.4546    2.3691 Si  0  0  0  0  0  4  0  0  0  0  0  0
   -0.9534   -1.4750    3.2954 H   0  0  0  0  0  0  0  0  0  0  0  0
   -2.5162   -1.0605    1.5694 H   0  0  0  0  0  0  0  0  0  0  0  0
    2.0258    0.2806    1.8936 Si  0  0  0  0  0  4  0  0  0  0  0  0
    2.6594    1.5637    1.4762 H   0  0  0  0  0  0  0  0  0  0  0  0
    2.9492   -0.7796    1.4109 H   0  0  0  0  0  0  0  0  0  0  0  0
    1.9859    0.2176    4.0953 Si  0  0  0  0  0  4  0  0  0  0  0  0
    2.0647   -1.8715    4.8886 Si  0  0  0  0  0  4  0  0  0  0  0  0
   -3.2399    0.9985    5.2308 Si  0  0  0  0  0  4  0  0  0  0  0  0
   -2.1802    1.3681    3.3326 Si  0  0  0  0  0  4  0  0  0  0  0  0
   -3.0373    2.0888    2.3495 H   0  0  0  0  0  0  0  0  0  0  0  0
   -1.0305    2.2809    3.5846 H   0  0  0  0  0  0  0  0  0  0  0  0
    0.3428   -2.1681    6.2519 Si  0  0  0  0  0  4  0  0  0  0  0  0
   -4.0754   -1.0375    5.3887 Si  0  0  0  0  0  4  0  0  0  0  0  0
    0.7003   -1.3934    8.2853 Si  0  0  0  0  0  4  0  0  0  0  0  0
   -3.3443   -2.1085    7.2181 Si  0  0  0  0  0  4  0  0  0  0  0  0
    1.8943   -2.7800    3.7393 H   0  0  0  0  0  0  0  0  0  0  0  0
    3.3500   -2.1758    5.5107 H   0  0  0  0  0  0  0  0  0  0  0  0
   -0.8131   -1.4440    5.6912 H   0  0  0  0  0  0  0  0  0  0  0  0
    0.0676   -3.6158    6.3404 H   0  0  0  0  0  0  0  0  0  0  0  0
   -2.2471   -3.0284    6.9007 H   0  0  0  0  0  0  0  0  0  0  0  0
   -4.4722   -2.9730    7.6508 H   0  0  0  0  0  0  0  0  0  0  0  0
   -0.8601    0.0481    8.9370 Si  0  0  0  0  0  4  0  0  0  0  0  0
   -0.5418    0.4252   10.3420 H   0  0  0  0  0  0  0  0  0  0  0  0
   -0.7553    1.3009    8.1615 H   0  0  0  0  0  0  0  0  0  0  0  0
   -2.8951   -0.7300    8.8714 Si  0  0  0  0  0  4  0  0  0  0  0  0
   -3.8524    0.4085    8.8022 H   0  0  0  0  0  0  0  0  0  0  0  0
   -3.1991   -1.4153   10.1593 H   0  0  0  0  0  0  0  0  0  0  0  0
    0.8257   -2.4727    9.2887 H   0  0  0  0  0  0  0  0  0  0  0  0
    1.9948   -0.6796    8.2909 H   0  0  0  0  0  0  0  0  0  0  0  0
   -5.5521   -1.0078    5.3458 H   0  0  0  0  0  0  0  0  0  0  0  0
   -3.6499   -1.8134    4.1982 H   0  0  0  0  0  0  0  0  0  0  0  0
   -4.3575    1.9783    5.3252 H   0  0  0  0  0  0  0  0  0  0  0  0
   -2.3427    1.3158    6.3589 H   0  0  0  0  0  0  0  0  0  0  0  0
    0.8416    0.9621    4.6564 H   0  0  0  0  0  0  0  0  0  0  0  0
    3.2047    0.9119    4.5983 H   0  0  0  0  0  0  0  0  0  0  0  0
  1  2  1  0
  1  5  1  0
  2  3  1  0
  2  4  1  0
  2 11  1  0
  5  6  1  0
  5  7  1  0
  5  8  1  0
  8  9  1  0
  8 36  1  0
  8 37  1  0
  9 14  1  0
  9 18  1  0
  9 19  1  0
 10 11  1  0
 10 15  1  0
 10 34  1  0
 10 35  1  0
 11 12  1  0
 11 13  1  0
 14 16  1  0
 14 20  1  0
 14 21  1  0
 15 17  1  0
 15 32  1  0
 15 33  1  0
 16 24  1  0
 16 30  1  0
 16 31  1  0
 17 22  1  0
 17 23  1  0
 17 27  1  0
 24 25  1  0
 24 26  1  0
 24 27  1  0
 27 28  1  0
 27 29  1  0
M  CHG  1   1   1
M  RAD  1   1   2
M  END
$$$$

     RDKit          3D

 37 37  0  0  0  0  0  0  0  0999 V2000
    0.1339    0.0743    0.9903 S   0  0  0  0  0  2  0  0  0  0  0  0
   -1.1410   -0.9395    2.3766 Si  0  0  0  0  0  4  0  0  0  0  0  0
   -0.3614   -1.7391    3.3059 H   0  0  0  0  0  0  0  0  0  0  0  0
   -1.9751   -1.8870    1.5833 H   0  0  0  0  0  0  0  0  0  0  0  0
    1.8460    0.9133    1.8863 Si  0  0  0  0  0  4  0  0  0  0  0  0
    2.0074    2.3329    1.4611 H   0  0  0  0  0  0  0  0  0  0  0  0
    3.0727    0.2255    1.4053 H   0  0  0  0  0  0  0  0  0  0  0  0
    1.8332    0.8523    4.0885 Si  0  0  0  0  0  4  0  0  0  0  0  0
    2.6155   -1.0827    4.8908 Si  0  0  0  0  0  4  0  0  0  0  0  0
   -3.3467   -0.1748    5.2378 Si  0  0  0  0  0  4  0  0  0  0  0  0
   -2.4776    0.5215    3.3345 Si  0  0  0  0  0  4  0  0  0  0  0  0
   -3.5296    0.9044    2.3510 H   0  0  0  0  0  0  0  0  0  0  0  0
   -1.7041    1.7707    3.5785 H   0  0  0  0  0  0  0  0  0  0  0  0
    1.0977   -1.9371    6.2611 Si  0  0  0  0  0  4  0  0  0  0  0  0
   -3.4439   -2.3725    5.4076 Si  0  0  0  0  0  4  0  0  0  0  0  0
    1.1753   -1.0763    8.2898 Si  0  0  0  0  0  4  0  0  0  0  0  0
   -2.3906   -3.1231    7.2393 Si  0  0  0  0  0  4  0  0  0  0  0  0
    2.7606   -2.0014    3.7461 H   0  0  0  0  0  0  0  0  0  0  0  0
    3.9289   -0.9309    5.5100 H   0  0  0  0  0  0  0  0  0  0  0  0
   -0.2359   -1.6497    5.7011 H   0  0  0  0  0  0  0  0  0  0  0  0
    1.3286   -3.3920    6.3571 H   0  0  0  0  0  0  0  0  0  0  0  0
   -1.0474   -3.6193    6.9224 H   0  0  0  0  0  0  0  0  0  0  0  0
   -3.1588   -4.3160    7.6797 H   0  0  0  0  0  0  0  0  0  0  0  0
   -0.7797   -0.2442    8.9403 Si  0  0  0  0  0  4  0  0  0  0  0  0
   -0.6055    0.2259   10.3425 H   0  0  0  0  0  0  0  0  0  0  0  0
   -1.1062    0.9661    8.1589 H   0  0  0  0  0  0  0  0  0  0  0  0
   -2.4316   -1.6652    8.8850 Si  0  0  0  0  0  4  0  0  0  0  0  0
   -3.7177   -0.9181    8.8138 H   0  0  0  0  0  0  0  0  0  0  0  0
   -2.4837   -2.4060   10.1769 H   0  0  0  0  0  0  0  0  0  0  0  0
    1.6600   -2.0440    9.2977 H   0  0  0  0  0  0  0  0  0  0  0  0
    2.1520    0.0335    8.2879 H   0  0  0  0  0  0  0  0  0  0  0  0
   -4.8436   -2.8444    5.3695 H   0  0  0  0  0  0  0  0  0  0  0  0
   -2.7830   -2.9650    4.2192 H   0  0  0  0  0  0  0  0  0  0  0  0
   -4.7297    0.3697    5.3316 H   0  0  0  0  0  0  0  0  0  0  0  0
   -2.6080    0.4334    6.3615 H   0  0  0  0  0  0  0  0  0  0  0  0
    0.5055    1.1687    4.6500 H   0  0  0  0  0  0  0  0  0  0  0  0
    2.7461    1.9207    4.5843 H   0  0  0  0  0  0  0  0  0  0  0  0
  1  2  1  0
  1  5  1  0
  2  3  1  0
  2  4  1  0
  2 11  1  0
  5  6  1  0
  5  7  1  0
  5  8  1  0
  8  9  1  0
  8 36  1  0
  8 37  1  0
  9 14  1  0
  9 18  1  0
  9 19  1  0
 10 11  1  0
 10 15  1  0
 10 34  1  0
 10 35  1  0
 11 12  1  0
 11 13  1  0
 14 16  1  0
 14 20  1  0
 14 21  1  0
 15 17  1  0
 15 32  1  0
 15 33  1  0
 16 24  1  0
 16 30  1  0
 16 31  1  0
 17 22  1  0
 17 23  1  0
 17 27  1  0
 24 25  1  0
 24 26  1  0
 24 27  1  0
 27 28  1  0
 27 29  1  0
M  CHG  1   1   1
M  RAD  1   1   2
M  END
$$$$
