
     RDKit          3D

 37 37  0  0  0  0  0  0  0  0999 V2000
   -0.1644    0.1664    3.9163 S   0  0  0  0  0  2  0  0  0  0  0  0
   -1.1574    1.9789    4.5394 Si  0  0  0  0  0  4  0  0  0  0  0  0
   -2.5847    1.9452    4.2258 H   0  0  0  0  0  0  0  0  0  0  0  0
   -0.5724    3.0737    3.7188 H   0  0  0  0  0  0  0  0  0  0  0  0
   -0.3317   -1.3658    5.3761 Si  0  0  0  0  0  4  0  0  0  0  0  0
   -1.5177   -1.1380    6.2040 H   0  0  0  0  0  0  0  0  0  0  0  0
   -0.5455   -2.6707    4.6921 H   0  0  0  0  0  0  0  0  0  0  0  0
    1.5222   -1.5575    6.6129 Si  0  0  0  0  0  4  0  0  0  0  0  0
    1.1451   -2.8443    8.3746 Si  0  0  0  0  0  4  0  0  0  0  0  0
   -2.5633    2.0464    7.9491 Si  0  0  0  0  0  4  0  0  0  0  0  0
   -0.7493    2.3972    6.6738 Si  0  0  0  0  0  4  0  0  0  0  0  0
   -0.2105    3.7353    6.8789 H   0  0  0  0  0  0  0  0  0  0  0  0
    0.2858    1.4385    7.1457 H   0  0  0  0  0  0  0  0  0  0  0  0
    2.0001   -2.0248   10.2408 Si  0  0  0  0  0  4  0  0  0  0  0  0
   -2.3744    0.1610    9.1162 Si  0  0  0  0  0  4  0  0  0  0  0  0
    2.4572    0.1252   10.1267 Si  0  0  0  0  0  4  0  0  0  0  0  0
   -2.5990    0.4877   11.2923 Si  0  0  0  0  0  4  0  0  0  0  0  0
   -0.3319   -2.9325    8.5555 H   0  0  0  0  0  0  0  0  0  0  0  0
    1.5996   -4.2329    8.1603 H   0  0  0  0  0  0  0  0  0  0  0  0
    3.2441   -2.7869   10.5411 H   0  0  0  0  0  0  0  0  0  0  0  0
    1.0959   -2.2720   11.3765 H   0  0  0  0  0  0  0  0  0  0  0  0
   -3.4868   -0.5522   11.8534 H   0  0  0  0  0  0  0  0  0  0  0  0
   -3.1601    1.8042   11.5788 H   0  0  0  0  0  0  0  0  0  0  0  0
    0.8735    1.4128   10.9643 Si  0  0  0  0  0  4  0  0  0  0  0  0
    0.1963    2.1069    9.8340 H   0  0  0  0  0  0  0  0  0  0  0  0
    1.4603    2.5079   11.7884 H   0  0  0  0  0  0  0  0  0  0  0  0
   -0.5607    0.3139   12.2405 Si  0  0  0  0  0  4  0  0  0  0  0  0
   -0.6290    0.8631   13.6141 H   0  0  0  0  0  0  0  0  0  0  0  0
   -0.2628   -1.1038   12.3571 H   0  0  0  0  0  0  0  0  0  0  0  0
    2.7776    0.4825    8.7340 H   0  0  0  0  0  0  0  0  0  0  0  0
    3.7058    0.3748   10.9027 H   0  0  0  0  0  0  0  0  0  0  0  0
   -3.3645   -0.8525    8.6539 H   0  0  0  0  0  0  0  0  0  0  0  0
   -1.0483   -0.4175    8.8071 H   0  0  0  0  0  0  0  0  0  0  0  0
   -3.7252    1.9166    7.0584 H   0  0  0  0  0  0  0  0  0  0  0  0
   -2.6957    3.1956    8.8476 H   0  0  0  0  0  0  0  0  0  0  0  0
    2.0904   -0.2660    6.9595 H   0  0  0  0  0  0  0  0  0  0  0  0
    2.5272   -2.2524    5.7587 H   0  0  0  0  0  0  0  0  0  0  0  0
  1  2  1  0
  1  5  1  0
  2  3  1  0
  2  4  1  0
  2 11  1  0
  5  6  1  0
  5  7  1  0
  5  8  1  0
  8  9  1  0
  8 36  1  0
  8 37  1  0
  9 14  1  0
  9 18  1  0
  9 19  1  0
 10 11  1  0
 10 15  1  0
 10 34  1  0
 10 35  1  0
 11 12  1  0
 11 13  1  0
 14 16  1  0
 14 20  1  0
 14 21  1  0
 15 17  1  0
 15 32  1  0
 15 33  1  0
 16 24  1  0
 16 30  1  0
 16 31  1  0
 17 22  1  0
 17 23  1  0
 17 27  1  0
 24 25  1  0
 24 26  1  0
 24 27  1  0
 27 28  1  0
 27 29  1  0
M  CHG  1   1   1
M  RAD  1   1   2
M  END
$$$$

     RDKit          3D

 37 37  0  0  0  0  0  0  0  0999 V2000
   -0.1644    0.1664    3.9163 S   0  0  0  0  0  2  0  0  0  0  0  0
    1.6283   -0.6933    4.7567 Si  0  0  0  0  0  4  0  0  0  0  0  0
    2.8119    0.0957    4.4201 H   0  0  0  0  0  0  0  0  0  0  0  0
    1.8020   -2.0150    4.0956 H   0  0  0  0  0  0  0  0  0  0  0  0
   -0.9667    1.6884    5.1599 Si  0  0  0  0  0  4  0  0  0  0  0  0
    0.0926    2.2614    5.9928 H   0  0  0  0  0  0  0  0  0  0  0  0
   -1.4732    2.7990    4.3077 H   0  0  0  0  0  0  0  0  0  0  0  0
   -2.6856    0.9539    6.3885 Si  0  0  0  0  0  4  0  0  0  0  0  0
   -3.1958    2.4272    7.9605 Si  0  0  0  0  0  4  0  0  0  0  0  0
    2.6232    0.4362    8.1245 Si  0  0  0  0  0  4  0  0  0  0  0  0
    1.3923   -1.0151    6.9334 Si  0  0  0  0  0  4  0  0  0  0  0  0
    1.6770   -2.3906    7.3202 H   0  0  0  0  0  0  0  0  0  0  0  0
   -0.0276   -0.7516    7.2910 H   0  0  0  0  0  0  0  0  0  0  0  0
   -3.5629    1.4948    9.9306 Si  0  0  0  0  0  4  0  0  0  0  0  0
    1.3472    2.0147    9.0370 Si  0  0  0  0  0  4  0  0  0  0  0  0
   -2.7397   -0.5389   10.1062 Si  0  0  0  0  0  4  0  0  0  0  0  0
    1.5823    2.1267   11.2336 Si  0  0  0  0  0  4  0  0  0  0  0  0
   -2.0315    3.3464    8.1062 H   0  0  0  0  0  0  0  0  0  0  0  0
   -4.3315    3.2878    7.5728 H   0  0  0  0  0  0  0  0  0  0  0  0
   -5.0362    1.4600   10.1470 H   0  0  0  0  0  0  0  0  0  0  0  0
   -3.0201    2.3360   11.0105 H   0  0  0  0  0  0  0  0  0  0  0  0
    1.7059    3.5423   11.6402 H   0  0  0  0  0  0  0  0  0  0  0  0
    2.7618    1.3933   11.6817 H   0  0  0  0  0  0  0  0  0  0  0  0
   -0.7621   -0.6124   11.0816 Si  0  0  0  0  0  4  0  0  0  0  0  0
    0.2542   -0.9358   10.0420 H   0  0  0  0  0  0  0  0  0  0  0  0
   -0.6900   -1.7429   12.0508 H   0  0  0  0  0  0  0  0  0  0  0  0
   -0.2620    1.2407   12.1811 Si  0  0  0  0  0  4  0  0  0  0  0  0
    0.0162    0.9888   13.6137 H   0  0  0  0  0  0  0  0  0  0  0  0
   -1.3041    2.2515   12.1154 H   0  0  0  0  0  0  0  0  0  0  0  0
   -2.7216   -1.1743    8.7773 H   0  0  0  0  0  0  0  0  0  0  0  0
   -3.6833   -1.3510   10.9268 H   0  0  0  0  0  0  0  0  0  0  0  0
    1.6328    3.3461    8.4311 H   0  0  0  0  0  0  0  0  0  0  0  0
   -0.0548    1.7120    8.6746 H   0  0  0  0  0  0  0  0  0  0  0  0
    3.5686    1.0882    7.2072 H   0  0  0  0  0  0  0  0  0  0  0  0
    3.3170   -0.3280    9.1637 H   0  0  0  0  0  0  0  0  0  0  0  0
   -2.4598   -0.3832    6.9099 H   0  0  0  0  0  0  0  0  0  0  0  0
   -3.8529    0.8626    5.4657 H   0  0  0  0  0  0  0  0  0  0  0  0
  1  2  1  0
  1  5  1  0
  2  3  1  0
  2  4  1  0
  2 11  1  0
  5  6  1  0
  5  7  1  0
  5  8  1  0
  8  9  1  0
  8 36  1  0
  8 37  1  0
  9 14  1  0
  9 18  1  0
  9 19  1  0
 10 11  1  0
 10 15  1  0
 10 34  1  0
 10 35  1  0
 11 12  1  0
 11 13  1  0
 14 16  1  0
 14 20  1  0
 14 21  1  0
 15 17  1  0
 15 32  1  0
 15 33  1  0
 16 24  1  0
 16 30  1  0
 16 31  1  0
 17 22  1  0
 17 23  1  0
 17 27  1  0
 24 25  1  0
 24 26  1  0
 24 27  1  0
 27 28  1  0
 27 29  1  0
M  CHG  1   1   1
M  RAD  1   1   2
M  END
$$$$

     RDKit          3D

 37 37  0  0  0  0  0  0  0  0999 V2000
   -0.1644    0.1664    3.9163 S   0  0  0  0  0  2  0  0  0  0  0  0
   -2.0011   -0.6460    4.7076 Si  0  0  0  0  0  4  0  0  0  0  0  0
   -2.0799   -2.0918    4.5073 H   0  0  0  0  0  0  0  0  0  0  0  0
   -3.0989   -0.0492    3.8996 H   0  0  0  0  0  0  0  0  0  0  0  0
    1.4328    0.0028    5.3051 Si  0  0  0  0  0  4  0  0  0  0  0  0
    1.1735   -1.0979    6.2354 H   0  0  0  0  0  0  0  0  0  0  0  0
    2.6801   -0.3538    4.5750 H   0  0  0  0  0  0  0  0  0  0  0  0
    1.8161    1.9271    6.3792 Si  0  0  0  0  0  4  0  0  0  0  0  0
    3.1718    1.5949    8.0978 Si  0  0  0  0  0  4  0  0  0  0  0  0
   -1.9705   -1.7807    8.2174 Si  0  0  0  0  0  4  0  0  0  0  0  0
   -2.2710   -0.0485    6.8212 Si  0  0  0  0  0  4  0  0  0  0  0  0
   -3.5568    0.5973    7.0504 H   0  0  0  0  0  0  0  0  0  0  0  0
   -1.2207    0.9491    7.1600 H   0  0  0  0  0  0  0  0  0  0  0  0
    2.5168    2.6448    9.9292 Si  0  0  0  0  0  4  0  0  0  0  0  0
   -0.0142   -1.6372    9.2686 Si  0  0  0  0  0  4  0  0  0  0  0  0
    0.3989    3.2425    9.8883 Si  0  0  0  0  0  4  0  0  0  0  0  0
   -0.2326   -1.6724   11.4695 Si  0  0  0  0  0  4  0  0  0  0  0  0
    3.1717    0.1334    8.3909 H   0  0  0  0  0  0  0  0  0  0  0  0
    4.5733    1.9327    7.7778 H   0  0  0  0  0  0  0  0  0  0  0  0
    3.3754    3.8511   10.0905 H   0  0  0  0  0  0  0  0  0  0  0  0
    2.7667    1.8143   11.1193 H   0  0  0  0  0  0  0  0  0  0  0  0
    0.7759   -2.5863   12.0460 H   0  0  0  0  0  0  0  0  0  0  0  0
   -1.5653   -2.1158   11.8660 H   0  0  0  0  0  0  0  0  0  0  0  0
   -0.9420    1.8218   10.9135 Si  0  0  0  0  0  4  0  0  0  0  0  0
   -1.7419    1.1114    9.8773 H   0  0  0  0  0  0  0  0  0  0  0  0
   -1.9478    2.5452   11.7427 H   0  0  0  0  0  0  0  0  0  0  0  0
    0.1290    0.4147   12.2424 Si  0  0  0  0  0  4  0  0  0  0  0  0
   -0.3457    0.4897   13.6431 H   0  0  0  0  0  0  0  0  0  0  0  0
    1.5676    0.6197   12.2629 H   0  0  0  0  0  0  0  0  0  0  0  0
   -0.0139    3.4807    8.4944 H   0  0  0  0  0  0  0  0  0  0  0  0
    0.2766    4.5609   10.5741 H   0  0  0  0  0  0  0  0  0  0  0  0
    0.9037   -2.7286    8.8358 H   0  0  0  0  0  0  0  0  0  0  0  0
    0.6327   -0.3826    8.8260 H   0  0  0  0  0  0  0  0  0  0  0  0
   -1.9682   -3.0131    7.4166 H   0  0  0  0  0  0  0  0  0  0  0  0
   -3.0738   -1.7631    9.1806 H   0  0  0  0  0  0  0  0  0  0  0  0
    0.5867    2.6097    6.7446 H   0  0  0  0  0  0  0  0  0  0  0  0
    2.5272    2.8128    5.4136 H   0  0  0  0  0  0  0  0  0  0  0  0
  1  2  1  0
  1  5  1  0
  2  3  1  0
  2  4  1  0
  2 11  1  0
  5  6  1  0
  5  7  1  0
  5  8  1  0
  8  9  1  0
  8 36  1  0
  8 37  1  0
  9 14  1  0
  9 18  1  0
  9 19  1  0
 10 11  1  0
 10 15  1  0
 10 34  1  0
 10 35  1  0
 11 12  1  0
 11 13  1  0
 14 16  1  0
 14 20  1  0
 14 21  1  0
 15 17  1  0
 15 32  1  0
 15 33  1  0
 16 24  1  0
 16 30  1  0
 16 31  1  0
 17 22  1  0
 17 23  1  0
 17 27  1  0
 24 25  1  0
 24 26  1  0
 24 27  1  0
 27 28  1  0
 27 29  1  0
M  CHG  1   1   1
M  RAD  1   1   2
M  END
$$$$

     RDKit          3D

 37 37  0  0  0  0  0  0  0  0999 V2000
   -0.1644    0.1664    3.9163 S   0  0  0  0  0  2  0  0  0  0  0  0
   -1.5782    1.4421    4.9302 Si  0  0  0  0  0  4  0  0  0  0  0  0
   -0.8613    2.2953    5.9217 H   0  0  0  0  0  0  0  0  0  0  0  0
   -2.2470    2.2960    3.9716 H   0  0  0  0  0  0  0  0  0  0  0  0
    0.6284   -1.3193    5.2120 Si  0  0  0  0  0  4  0  0  0  0  0  0
    1.9010   -1.8057    4.6123 H   0  0  0  0  0  0  0  0  0  0  0  0
    0.9118   -0.7483    6.5247 H   0  0  0  0  0  0  0  0  0  0  0  0
   -0.7253   -3.0834    5.4003 Si  0  0  0  0  0  4  0  0  0  0  0  0
    0.3470   -4.8858    6.1115 Si  0  0  0  0  0  4  0  0  0  0  0  0
   -5.0960    1.0271    5.9604 Si  0  0  0  0  0  4  0  0  0  0  0  0
   -3.0444    0.1570    5.9722 Si  0  0  0  0  0  4  0  0  0  0  0  0
   -2.6234   -0.0042    7.3484 H   0  0  0  0  0  0  0  0  0  0  0  0
   -3.1354   -1.1255    5.2405 H   0  0  0  0  0  0  0  0  0  0  0  0
   -0.3956   -5.4786    8.1565 Si  0  0  0  0  0  4  0  0  0  0  0  0
   -6.5398   -0.5503    6.5239 Si  0  0  0  0  0  4  0  0  0  0  0  0
   -2.4546   -4.6839    8.4920 Si  0  0  0  0  0  4  0  0  0  0  0  0
   -5.5807   -2.2515    7.5840 Si  0  0  0  0  0  4  0  0  0  0  0  0
    0.1089   -6.0001    5.1521 H   0  0  0  0  0  0  0  0  0  0  0  0
    1.7947   -4.6624    6.1258 H   0  0  0  0  0  0  0  0  0  0  0  0
   -0.4729   -6.9463    8.1700 H   0  0  0  0  0  0  0  0  0  0  0  0
    0.5539   -4.9986    9.1557 H   0  0  0  0  0  0  0  0  0  0  0  0
   -6.6772   -3.0940    8.1412 H   0  0  0  0  0  0  0  0  0  0  0  0
   -4.8333   -3.1222    6.6653 H   0  0  0  0  0  0  0  0  0  0  0  0
   -2.3512   -2.6320    9.3255 Si  0  0  0  0  0  4  0  0  0  0  0  0
   -1.3881   -1.8016    8.5515 H   0  0  0  0  0  0  0  0  0  0  0  0
   -1.8529   -2.7087   10.7027 H   0  0  0  0  0  0  0  0  0  0  0  0
   -4.3113   -1.5995    9.2704 Si  0  0  0  0  0  4  0  0  0  0  0  0
   -4.9874   -1.8471   10.5769 H   0  0  0  0  0  0  0  0  0  0  0  0
   -4.1349   -0.1180    9.2232 H   0  0  0  0  0  0  0  0  0  0  0  0
   -3.1722   -4.7204    7.2187 H   0  0  0  0  0  0  0  0  0  0  0  0
   -3.0938   -5.5560    9.5101 H   0  0  0  0  0  0  0  0  0  0  0  0
   -7.6565   -0.0183    7.3125 H   0  0  0  0  0  0  0  0  0  0  0  0
   -7.1456   -1.0994    5.2759 H   0  0  0  0  0  0  0  0  0  0  0  0
   -5.3641    1.4821    4.5669 H   0  0  0  0  0  0  0  0  0  0  0  0
   -5.2095    2.2076    6.8095 H   0  0  0  0  0  0  0  0  0  0  0  0
   -1.3200   -3.3253    4.0612 H   0  0  0  0  0  0  0  0  0  0  0  0
   -1.7681   -2.7389    6.3750 H   0  0  0  0  0  0  0  0  0  0  0  0
  1  2  1  0
  1  5  1  0
  2  3  1  0
  2  4  1  0
  2 11  1  0
  5  6  1  0
  5  7  1  0
  5  8  1  0
  8  9  1  0
  8 36  1  0
  8 37  1  0
  9 14  1  0
  9 18  1  0
  9 19  1  0
 10 11  1  0
 10 15  1  0
 10 34  1  0
 10 35  1  0
 11 12  1  0
 11 13  1  0
 14 16  1  0
 14 20  1  0
 14 21  1  0
 15 17  1  0
 15 32  1  0
 15 33  1  0
 16 24  1  0
 16 30  1  0
 16 31  1  0
 17 22  1  0
 17 23  1  0
 17 27  1  0
 24 25  1  0
 24 26  1  0
 24 27  1  0
 27 28  1  0
 27 29  1  0
M  CHG  1   1   1
M  RAD  1   1   2
M  END
$$$$

     RDKit          3D

 37 37  0  0  0  0  0  0  0  0999 V2000
   -0.1644    0.1664    3.9163 S   0  0  0  0  0  2  0  0  0  0  0  0
    0.8765    0.7924    5.6597 Si  0  0  0  0  0  4  0  0  0  0  0  0
    0.8183   -0.2008    6.7388 H   0  0  0  0  0  0  0  0  0  0  0  0
    2.3170    0.9149    5.2940 H   0  0  0  0  0  0  0  0  0  0  0  0
   -2.1410   -0.4965    4.3212 Si  0  0  0  0  0  4  0  0  0  0  0  0
   -2.3412   -1.9109    3.9551 H   0  0  0  0  0  0  0  0  0  0  0  0
   -3.0654    0.2922    3.4588 H   0  0  0  0  0  0  0  0  0  0  0  0
   -2.6563   -0.0997    6.4223 Si  0  0  0  0  0  4  0  0  0  0  0  0
   -3.0277   -1.9908    7.5804 Si  0  0  0  0  0  4  0  0  0  0  0  0
    1.1172    3.1431    8.3892 Si  0  0  0  0  0  4  0  0  0  0  0  0
    0.2031    2.7697    6.3972 Si  0  0  0  0  0  4  0  0  0  0  0  0
    0.7007    3.8101    5.4768 H   0  0  0  0  0  0  0  0  0  0  0  0
   -1.2595    2.8990    6.4300 H   0  0  0  0  0  0  0  0  0  0  0  0
   -1.2796   -2.5131    8.7764 Si  0  0  0  0  0  4  0  0  0  0  0  0
    0.1698    1.8519    9.9634 Si  0  0  0  0  0  4  0  0  0  0  0  0
   -1.5519   -2.5247   10.9511 Si  0  0  0  0  0  4  0  0  0  0  0  0
   -1.9470    2.4847   10.1780 Si  0  0  0  0  0  4  0  0  0  0  0  0
   -4.2651   -1.8934    8.3699 H   0  0  0  0  0  0  0  0  0  0  0  0
   -3.2922   -3.0340    6.5503 H   0  0  0  0  0  0  0  0  0  0  0  0
   -0.1526   -1.5983    8.4311 H   0  0  0  0  0  0  0  0  0  0  0  0
   -0.7839   -3.8537    8.3810 H   0  0  0  0  0  0  0  0  0  0  0  0
   -2.4628    3.1418    8.9675 H   0  0  0  0  0  0  0  0  0  0  0  0
   -1.9983    3.4825   11.2579 H   0  0  0  0  0  0  0  0  0  0  0  0
   -2.3375   -0.7512   11.9096 Si  0  0  0  0  0  4  0  0  0  0  0  0
   -1.2560   -0.0436   12.6685 H   0  0  0  0  0  0  0  0  0  0  0  0
   -3.2998   -1.1464   12.9830 H   0  0  0  0  0  0  0  0  0  0  0  0
   -3.2967    0.7660   10.6591 Si  0  0  0  0  0  4  0  0  0  0  0  0
   -3.9271    0.2218    9.4500 H   0  0  0  0  0  0  0  0  0  0  0  0
   -4.4075    1.3772   11.4163 H   0  0  0  0  0  0  0  0  0  0  0  0
   -0.2371   -2.8635   11.5350 H   0  0  0  0  0  0  0  0  0  0  0  0
   -2.4049   -3.7076   11.2860 H   0  0  0  0  0  0  0  0  0  0  0  0
    0.2134    0.4494    9.6226 H   0  0  0  0  0  0  0  0  0  0  0  0
    0.9218    2.0396   11.2170 H   0  0  0  0  0  0  0  0  0  0  0  0
    2.5332    2.8083    8.3312 H   0  0  0  0  0  0  0  0  0  0  0  0
    0.8846    4.5520    8.7686 H   0  0  0  0  0  0  0  0  0  0  0  0
   -3.8729    0.7274    6.5487 H   0  0  0  0  0  0  0  0  0  0  0  0
   -1.5718    0.6128    7.0892 H   0  0  0  0  0  0  0  0  0  0  0  0
  1  2  1  0
  1  5  1  0
  2  3  1  0
  2  4  1  0
  2 11  1  0
  5  6  1  0
  5  7  1  0
  5  8  1  0
  8  9  1  0
  8 36  1  0
  8 37  1  0
  9 14  1  0
  9 18  1  0
  9 19  1  0
 10 11  1  0
 10 15  1  0
 10 34  1  0
 10 35  1  0
 11 12  1  0
 11 13  1  0
 14 16  1  0
 14 20  1  0
 14 21  1  0
 15 17  1  0
 15 32  1  0
 15 33  1  0
 16 24  1  0
 16 30  1  0
 16 31  1  0
 17 22  1  0
 17 23  1  0
 17 27  1  0
 24 25  1  0
 24 26  1  0
 24 27  1  0
 27 28  1  0
 27 29  1  0
M  CHG  1   1   1
M  RAD  1   1   2
M  END
$$$$

     RDKit          3D

 37 37  0  0  0  0  0  0  0  0999 V2000
   -0.1644    0.1664    3.9163 S   0  0  0  0  0  2  0  0  0  0  0  0
   -1.8049   -0.7198    4.9299 Si  0  0  0  0  0  4  0  0  0  0  0  0
   -3.0405   -0.3937    4.1657 H   0  0  0  0  0  0  0  0  0  0  0  0
   -1.9626   -0.1871    6.2773 H   0  0  0  0  0  0  0  0  0  0  0  0
    1.6019    0.2474    5.0974 Si  0  0  0  0  0  4  0  0  0  0  0  0
    1.5296   -0.6286    6.2680 H   0  0  0  0  0  0  0  0  0  0  0  0
    2.7266   -0.2493    4.2582 H   0  0  0  0  0  0  0  0  0  0  0  0
    2.1155    2.3226    5.7143 Si  0  0  0  0  0  4  0  0  0  0  0  0
    1.8791    2.5879    7.9349 Si  0  0  0  0  0  4  0  0  0  0  0  0
   -0.3198   -3.4927    6.7334 Si  0  0  0  0  0  4  0  0  0  0  0  0
   -1.6592   -2.9390    5.0150 Si  0  0  0  0  0  4  0  0  0  0  0  0
   -1.2108   -3.5279    3.7679 H   0  0  0  0  0  0  0  0  0  0  0  0
   -3.0084   -3.4529    5.3646 H   0  0  0  0  0  0  0  0  0  0  0  0
   -0.2657    2.5611    8.4770 Si  0  0  0  0  0  4  0  0  0  0  0  0
   -0.7175   -1.9968    8.3619 Si  0  0  0  0  0  4  0  0  0  0  0  0
   -0.6003    1.3539   10.3422 Si  0  0  0  0  0  4  0  0  0  0  0  0
   -2.8208   -2.0414    9.0236 Si  0  0  0  0  0  4  0  0  0  0  0  0
    2.5106    3.8440    8.3325 H   0  0  0  0  0  0  0  0  0  0  0  0
    2.5869    1.5035    8.6398 H   0  0  0  0  0  0  0  0  0  0  0  0
   -0.7399    3.9321    8.7737 H   0  0  0  0  0  0  0  0  0  0  0  0
   -1.0736    1.9449    7.4147 H   0  0  0  0  0  0  0  0  0  0  0  0
   -2.9434   -2.6500   10.3525 H   0  0  0  0  0  0  0  0  0  0  0  0
   -3.5954   -2.8556    8.0765 H   0  0  0  0  0  0  0  0  0  0  0  0
   -2.8195    1.2604   10.6643 Si  0  0  0  0  0  4  0  0  0  0  0  0
   -3.1589    0.8415   12.0108 H   0  0  0  0  0  0  0  0  0  0  0  0
   -3.3261    2.6419   10.4563 H   0  0  0  0  0  0  0  0  0  0  0  0
   -3.7393   -0.0213    9.1005 Si  0  0  0  0  0  4  0  0  0  0  0  0
   -5.1676   -0.1939    9.4500 H   0  0  0  0  0  0  0  0  0  0  0  0
   -3.6814    0.6330    7.8028 H   0  0  0  0  0  0  0  0  0  0  0  0
    0.0665    1.9876   11.4923 H   0  0  0  0  0  0  0  0  0  0  0  0
   -0.0642    0.0056   10.2146 H   0  0  0  0  0  0  0  0  0  0  0  0
   -0.3239   -0.6851    7.8392 H   0  0  0  0  0  0  0  0  0  0  0  0
    0.1669   -2.3420    9.4958 H   0  0  0  0  0  0  0  0  0  0  0  0
    1.0896   -3.3584    6.3387 H   0  0  0  0  0  0  0  0  0  0  0  0
   -0.5829   -4.8611    7.1911 H   0  0  0  0  0  0  0  0  0  0  0  0
    3.5356    2.6440    5.4130 H   0  0  0  0  0  0  0  0  0  0  0  0
    1.2802    3.3275    5.0636 H   0  0  0  0  0  0  0  0  0  0  0  0
  1  2  1  0
  1  5  1  0
  2  3  1  0
  2  4  1  0
  2 11  1  0
  5  6  1  0
  5  7  1  0
  5  8  1  0
  8  9  1  0
  8 36  1  0
  8 37  1  0
  9 14  1  0
  9 18  1  0
  9 19  1  0
 10 11  1  0
 10 15  1  0
 10 34  1  0
 10 35  1  0
 11 12  1  0
 11 13  1  0
 14 16  1  0
 14 20  1  0
 14 21  1  0
 15 17  1  0
 15 32  1  0
 15 33  1  0
 16 24  1  0
 16 30  1  0
 16 31  1  0
 17 22  1  0
 17 23  1  0
 17 27  1  0
 24 25  1  0
 24 26  1  0
 24 27  1  0
 27 28  1  0
 27 29  1  0
M  CHG  1   1   1
M  RAD  1   1   2
M  END
$$$$

     RDKit          3D

 37 37  0  0  0  0  0  0  0  0999 V2000
   -0.1644    0.1664    3.9163 S   0  0  0  0  0  2  0  0  0  0  0  0
   -1.0324   -1.6086    4.7854 Si  0  0  0  0  0  4  0  0  0  0  0  0
   -0.1826   -2.7796    4.5781 H   0  0  0  0  0  0  0  0  0  0  0  0
   -2.2909   -1.8639    4.0335 H   0  0  0  0  0  0  0  0  0  0  0  0
    1.2272    1.0871    5.2287 Si  0  0  0  0  0  4  0  0  0  0  0  0
    1.7643    0.0945    6.1616 H   0  0  0  0  0  0  0  0  0  0  0  0
    2.3862    1.5867    4.4391 H   0  0  0  0  0  0  0  0  0  0  0  0
    0.3435    2.8417    6.2982 Si  0  0  0  0  0  4  0  0  0  0  0  0
    1.6693    3.4865    7.9499 Si  0  0  0  0  0  4  0  0  0  0  0  0
   -0.1461   -2.3825    8.2815 Si  0  0  0  0  0  4  0  0  0  0  0  0
   -1.5349   -1.2689    6.9137 Si  0  0  0  0  0  4  0  0  0  0  0  0
   -2.9275   -1.5813    7.2068 H   0  0  0  0  0  0  0  0  0  0  0  0
   -1.3453    0.1764    7.2111 H   0  0  0  0  0  0  0  0  0  0  0  0
    0.5711    3.9244    9.8174 Si  0  0  0  0  0  4  0  0  0  0  0  0
    1.3137   -1.0047    9.2423 Si  0  0  0  0  0  4  0  0  0  0  0  0
   -1.4434    3.0400    9.8788 Si  0  0  0  0  0  4  0  0  0  0  0  0
    1.2566   -1.1187   11.4506 Si  0  0  0  0  0  4  0  0  0  0  0  0
    2.6098    2.3650    8.2318 H   0  0  0  0  0  0  0  0  0  0  0  0
    2.5225    4.6299    7.5681 H   0  0  0  0  0  0  0  0  0  0  0  0
    0.4732    5.4049    9.9479 H   0  0  0  0  0  0  0  0  0  0  0  0
    1.3396    3.4699   10.9884 H   0  0  0  0  0  0  0  0  0  0  0  0
    2.6382   -1.1703   11.9730 H   0  0  0  0  0  0  0  0  0  0  0  0
    0.5267   -2.2980   11.9049 H   0  0  0  0  0  0  0  0  0  0  0  0
   -1.5333    1.1156   10.9541 Si  0  0  0  0  0  4  0  0  0  0  0  0
   -1.7405    0.0348    9.9506 H   0  0  0  0  0  0  0  0  0  0  0  0
   -2.7350    1.0550   11.8343 H   0  0  0  0  0  0  0  0  0  0  0  0
    0.2405    0.7406   12.2216 Si  0  0  0  0  0  4  0  0  0  0  0  0
   -0.1167    0.5301   13.6432 H   0  0  0  0  0  0  0  0  0  0  0  0
    1.2203    1.8130   12.1772 H   0  0  0  0  0  0  0  0  0  0  0  0
   -1.9694    2.9289    8.5072 H   0  0  0  0  0  0  0  0  0  0  0  0
   -2.3478    3.9964   10.5794 H   0  0  0  0  0  0  0  0  0  0  0  0
    2.6976   -1.2746    8.7594 H   0  0  0  0  0  0  0  0  0  0  0  0
    0.9975    0.3645    8.7797 H   0  0  0  0  0  0  0  0  0  0  0  0
    0.6064   -3.3515    7.4722 H   0  0  0  0  0  0  0  0  0  0  0  0
   -0.9691   -3.0469    9.2947 H   0  0  0  0  0  0  0  0  0  0  0  0
   -1.0235    2.5965    6.7251 H   0  0  0  0  0  0  0  0  0  0  0  0
    0.2900    3.9544    5.3075 H   0  0  0  0  0  0  0  0  0  0  0  0
  1  2  1  0
  1  5  1  0
  2  3  1  0
  2  4  1  0
  2 11  1  0
  5  6  1  0
  5  7  1  0
  5  8  1  0
  8  9  1  0
  8 36  1  0
  8 37  1  0
  9 14  1  0
  9 18  1  0
  9 19  1  0
 10 11  1  0
 10 15  1  0
 10 34  1  0
 10 35  1  0
 11 12  1  0
 11 13  1  0
 14 16  1  0
 14 20  1  0
 14 21  1  0
 15 17  1  0
 15 32  1  0
 15 33  1  0
 16 24  1  0
 16 30  1  0
 16 31  1  0
 17 22  1  0
 17 23  1  0
 17 27  1  0
 24 25  1  0
 24 26  1  0
 24 27  1  0
 27 28  1  0
 27 29  1  0
M  CHG  1   1   1
M  RAD  1   1   2
M  END
$$$$

     RDKit          3D

 37 37  0  0  0  0  0  0  0  0999 V2000
   -0.1644    0.1664    3.9163 S   0  0  0  0  0  2  0  0  0  0  0  0
   -1.1577    1.9788    4.5394 Si  0  0  0  0  0  4  0  0  0  0  0  0
   -2.5849    1.9450    4.2258 H   0  0  0  0  0  0  0  0  0  0  0  0
   -0.5727    3.0737    3.7188 H   0  0  0  0  0  0  0  0  0  0  0  0
   -0.3315   -1.3659    5.3761 Si  0  0  0  0  0  4  0  0  0  0  0  0
   -1.5175   -1.1382    6.2040 H   0  0  0  0  0  0  0  0  0  0  0  0
   -0.5451   -2.6707    4.6921 H   0  0  0  0  0  0  0  0  0  0  0  0
    1.5225   -1.5573    6.6129 Si  0  0  0  0  0  4  0  0  0  0  0  0
    1.1455   -2.8441    8.3746 Si  0  0  0  0  0  4  0  0  0  0  0  0
   -2.5635    2.0462    7.9492 Si  0  0  0  0  0  4  0  0  0  0  0  0
   -0.7496    2.3972    6.6738 Si  0  0  0  0  0  4  0  0  0  0  0  0
   -0.2109    3.7353    6.8789 H   0  0  0  0  0  0  0  0  0  0  0  0
    0.2856    1.4385    7.1457 H   0  0  0  0  0  0  0  0  0  0  0  0
    2.0004   -2.0245   10.2408 Si  0  0  0  0  0  4  0  0  0  0  0  0
   -2.3743    0.1607    9.1163 Si  0  0  0  0  0  4  0  0  0  0  0  0
    2.4573    0.1255   10.1267 Si  0  0  0  0  0  4  0  0  0  0  0  0
   -2.5990    0.4874   11.2924 Si  0  0  0  0  0  4  0  0  0  0  0  0
   -0.3315   -2.9325    8.5555 H   0  0  0  0  0  0  0  0  0  0  0  0
    1.6001   -4.2327    8.1602 H   0  0  0  0  0  0  0  0  0  0  0  0
    3.2445   -2.7865   10.5411 H   0  0  0  0  0  0  0  0  0  0  0  0
    1.0963   -2.2718   11.3765 H   0  0  0  0  0  0  0  0  0  0  0  0
   -3.4867   -0.5526   11.8535 H   0  0  0  0  0  0  0  0  0  0  0  0
   -3.1602    1.8038   11.5788 H   0  0  0  0  0  0  0  0  0  0  0  0
    0.8734    1.4129   10.9643 Si  0  0  0  0  0  4  0  0  0  0  0  0
    0.1961    2.1070    9.8339 H   0  0  0  0  0  0  0  0  0  0  0  0
    1.4600    2.5081   11.7884 H   0  0  0  0  0  0  0  0  0  0  0  0
   -0.5606    0.3139   12.2405 Si  0  0  0  0  0  4  0  0  0  0  0  0
   -0.6290    0.8631   13.6141 H   0  0  0  0  0  0  0  0  0  0  0  0
   -0.2626   -1.1038   12.3571 H   0  0  0  0  0  0  0  0  0  0  0  0
    2.7776    0.4829    8.7340 H   0  0  0  0  0  0  0  0  0  0  0  0
    3.7058    0.3753   10.9027 H   0  0  0  0  0  0  0  0  0  0  0  0
   -3.3644   -0.8529    8.6540 H   0  0  0  0  0  0  0  0  0  0  0  0
   -1.0482   -0.4176    8.8071 H   0  0  0  0  0  0  0  0  0  0  0  0
   -3.7254    1.9162    7.0585 H   0  0  0  0  0  0  0  0  0  0  0  0
   -2.6960    3.1953    8.8476 H   0  0  0  0  0  0  0  0  0  0  0  0
    2.0905   -0.2658    6.9595 H   0  0  0  0  0  0  0  0  0  0  0  0
    2.5275   -2.2521    5.7587 H   0  0  0  0  0  0  0  0  0  0  0  0
  1  2  1  0
  1  5  1  0
  2  3  1  0
  2  4  1  0
  2 11  1  0
  5  6  1  0
  5  7  1  0
  5  8  1  0
  8  9  1  0
  8 36  1  0
  8 37  1  0
  9 14  1  0
  9 18  1  0
  9 19  1  0
 10 11  1  0
 10 15  1  0
 10 34  1  0
 10 35  1  0
 11 12  1  0
 11 13  1  0
 14 16  1  0
 14 20  1  0
 14 21  1  0
 15 17  1  0
 15 32  1  0
 15 33  1  0
 16 24  1  0
 16 30  1  0
 16 31  1  0
 17 22  1  0
 17 23  1  0
 17 27  1  0
 24 25  1  0
 24 26  1  0
 24 27  1  0
 27 28  1  0
 27 29  1  0
M  CHG  1   1   1
M  RAD  1   1   2
M  END
$$$$

     RDKit          3D

 37 37  0  0  0  0  0  0  0  0999 V2000
   -0.1644    0.1664    3.9163 S   0  0  0  0  0  2  0  0  0  0  0  0
   -1.0966   -1.5772    4.7824 Si  0  0  0  0  0  4  0  0  0  0  0  0
   -0.2880   -2.7774    4.5767 H   0  0  0  0  0  0  0  0  0  0  0  0
   -2.3614   -1.7877    4.0274 H   0  0  0  0  0  0  0  0  0  0  0  0
    1.2557    1.0370    5.2324 Si  0  0  0  0  0  4  0  0  0  0  0  0
    1.7552    0.0256    6.1662 H   0  0  0  0  0  0  0  0  0  0  0  0
    2.4334    1.4957    4.4459 H   0  0  0  0  0  0  0  0  0  0  0  0
    0.4317    2.8211    6.3008 Si  0  0  0  0  0  4  0  0  0  0  0  0
    1.7755    3.4182    7.9559 Si  0  0  0  0  0  4  0  0  0  0  0  0
   -0.2465   -2.3834    8.2803 Si  0  0  0  0  0  4  0  0  0  0  0  0
   -1.5918   -1.2209    6.9097 Si  0  0  0  0  0  4  0  0  0  0  0  0
   -2.9953   -1.4841    7.1993 H   0  0  0  0  0  0  0  0  0  0  0  0
   -1.3521    0.2167    7.2082 H   0  0  0  0  0  0  0  0  0  0  0  0
    0.6889    3.8937    9.8210 Si  0  0  0  0  0  4  0  0  0  0  0  0
    1.2586   -1.0582    9.2453 Si  0  0  0  0  0  4  0  0  0  0  0  0
   -1.3557    3.0809    9.8771 Si  0  0  0  0  0  4  0  0  0  0  0  0
    1.1922   -1.1710   11.4533 Si  0  0  0  0  0  4  0  0  0  0  0  0
    2.6752    2.2640    8.2395 H   0  0  0  0  0  0  0  0  0  0  0  0
    2.6693    4.5309    7.5767 H   0  0  0  0  0  0  0  0  0  0  0  0
    0.6429    5.3767    9.9520 H   0  0  0  0  0  0  0  0  0  0  0  0
    1.4381    3.4119   10.9936 H   0  0  0  0  0  0  0  0  0  0  0  0
    2.5699   -1.2715   11.9791 H   0  0  0  0  0  0  0  0  0  0  0  0
    0.4202   -2.3241   11.9054 H   0  0  0  0  0  0  0  0  0  0  0  0
   -1.5159    1.1605   10.9513 Si  0  0  0  0  0  4  0  0  0  0  0  0
   -1.7587    0.0880    9.9468 H   0  0  0  0  0  0  0  0  0  0  0  0
   -2.7212    1.1419   11.8285 H   0  0  0  0  0  0  0  0  0  0  0  0
    0.2404    0.7226   12.2228 Si  0  0  0  0  0  4  0  0  0  0  0  0
   -0.1273    0.5243   13.6435 H   0  0  0  0  0  0  0  0  0  0  0  0
    1.2576    1.7599   12.1813 H   0  0  0  0  0  0  0  0  0  0  0  0
   -1.8820    2.9890    8.5042 H   0  0  0  0  0  0  0  0  0  0  0  0
   -2.2275    4.0683   10.5760 H   0  0  0  0  0  0  0  0  0  0  0  0
    2.6333   -1.3766    8.7655 H   0  0  0  0  0  0  0  0  0  0  0  0
    0.9920    0.3214    8.7826 H   0  0  0  0  0  0  0  0  0  0  0  0
    0.4734   -3.3780    7.4723 H   0  0  0  0  0  0  0  0  0  0  0  0
   -1.0948   -3.0187    9.2912 H   0  0  0  0  0  0  0  0  0  0  0  0
   -0.9440    2.6242    6.7242 H   0  0  0  0  0  0  0  0  0  0  0  0
    0.4199    3.9354    5.3104 H   0  0  0  0  0  0  0  0  0  0  0  0
  1  2  1  0
  1  5  1  0
  2  3  1  0
  2  4  1  0
  2 11  1  0
  5  6  1  0
  5  7  1  0
  5  8  1  0
  8  9  1  0
  8 36  1  0
  8 37  1  0
  9 14  1  0
  9 18  1  0
  9 19  1  0
 10 11  1  0
 10 15  1  0
 10 34  1  0
 10 35  1  0
 11 12  1  0
 11 13  1  0
 14 16  1  0
 14 20  1  0
 14 21  1  0
 15 17  1  0
 15 32  1  0
 15 33  1  0
 16 24  1  0
 16 30  1  0
 16 31  1  0
 17 22  1  0
 17 23  1  0
 17 27  1  0
 24 25  1  0
 24 26  1  0
 24 27  1  0
 27 28  1  0
 27 29  1  0
M  CHG  1   1   1
M  RAD  1   1   2
M  END
$$$$
