
     RDKit          3D

 37 37  0  0  0  0  0  0  0  0999 V2000
   -0.5091   -1.0060    2.5795 S   0  0  0  0  0  2  0  0  0  0  0  0
   -0.6605    0.7472    3.7165 Si  0  0  0  0  0  4  0  0  0  0  0  0
   -1.7121   -2.6285    3.1635 Si  0  0  0  0  0  4  0  0  0  0  0  0
   -0.6301   -3.7134    4.8149 Si  0  0  0  0  0  4  0  0  0  0  0  0
   -1.9362   -5.0052    6.0013 Si  0  0  0  0  0  4  0  0  0  0  0  0
   -0.5808    0.8080    7.4212 Si  0  0  0  0  0  4  0  0  0  0  0  0
   -1.7719    0.5707    5.5957 Si  0  0  0  0  0  4  0  0  0  0  0  0
   -2.3526   -4.2479    8.0422 Si  0  0  0  0  0  4  0  0  0  0  0  0
    1.5693    0.3755    7.2066 Si  0  0  0  0  0  4  0  0  0  0  0  0
   -0.5743   -4.1823    9.3594 Si  0  0  0  0  0  4  0  0  0  0  0  0
    2.2859   -1.0303    8.8268 Si  0  0  0  0  0  4  0  0  0  0  0  0
    1.3133   -4.6276    8.3808 Si  0  0  0  0  0  4  0  0  0  0  0  0
    2.7407   -3.0190    8.0533 Si  0  0  0  0  0  4  0  0  0  0  0  0
    0.9142    1.3408    4.0126 F   0  0  0  0  0  0  0  0  0  0  0  0
   -1.3907    1.9485    2.7412 F   0  0  0  0  0  0  0  0  0  0  0  0
   -3.2688   -2.2549    3.5666 F   0  0  0  0  0  0  0  0  0  0  0  0
   -1.7841   -3.7286    1.8553 F   0  0  0  0  0  0  0  0  0  0  0  0
   -1.2645   -6.5606    6.1083 F   0  0  0  0  0  0  0  0  0  0  0  0
   -3.4214   -5.1756    5.2180 F   0  0  0  0  0  0  0  0  0  0  0  0
   -3.5880   -5.2497    8.6763 F   0  0  0  0  0  0  0  0  0  0  0  0
   -3.0645   -2.7165    7.9460 F   0  0  0  0  0  0  0  0  0  0  0  0
   -3.0387    1.7213    5.6427 F   0  0  0  0  0  0  0  0  0  0  0  0
   -2.5384   -0.9295    5.6065 F   0  0  0  0  0  0  0  0  0  0  0  0
    2.1063   -5.8816    9.2491 F   0  0  0  0  0  0  0  0  0  0  0  0
    0.9259   -5.4111    6.9007 F   0  0  0  0  0  0  0  0  0  0  0  0
    2.9737   -2.8393    6.3581 F   0  0  0  0  0  0  0  0  0  0  0  0
    4.3028   -3.4780    8.5953 F   0  0  0  0  0  0  0  0  0  0  0  0
    3.7253   -0.3194    9.4301 F   0  0  0  0  0  0  0  0  0  0  0  0
    1.2022   -0.9501   10.0767 F   0  0  0  0  0  0  0  0  0  0  0  0
   -0.0128   -2.5276    5.8075 F   0  0  0  0  0  0  0  0  0  0  0  0
    0.6185   -4.5823    4.0371 F   0  0  0  0  0  0  0  0  0  0  0  0
   -1.2078   -0.2457    8.6115 F   0  0  0  0  0  0  0  0  0  0  0  0
   -0.8109    2.3750    8.0637 F   0  0  0  0  0  0  0  0  0  0  0  0
   -0.5994   -2.7081   10.2078 F   0  0  0  0  0  0  0  0  0  0  0  0
   -0.8664   -5.3351   10.5989 F   0  0  0  0  0  0  0  0  0  0  0  0
    2.4069    1.8510    7.2788 F   0  0  0  0  0  0  0  0  0  0  0  0
    1.9538   -0.2748    5.6812 F   0  0  0  0  0  0  0  0  0  0  0  0
  1  2  1  0
  1  3  1  0
  2  7  1  0
  2 14  1  0
  2 15  1  0
  3  4  1  0
  3 16  1  0
  3 17  1  0
  4  5  1  0
  4 30  1  0
  4 31  1  0
  5  8  1  0
  5 18  1  0
  5 19  1  0
  6  7  1  0
  6  9  1  0
  6 32  1  0
  6 33  1  0
  7 22  1  0
  7 23  1  0
  8 10  1  0
  8 20  1  0
  8 21  1  0
  9 11  1  0
  9 36  1  0
  9 37  1  0
 10 12  1  0
 10 34  1  0
 10 35  1  0
 11 13  1  0
 11 28  1  0
 11 29  1  0
 12 13  1  0
 12 24  1  0
 12 25  1  0
 13 26  1  0
 13 27  1  0
M  CHG  1   1   1
M  RAD  1   1   2
M  END
$$$$
