
     RDKit          3D

 39 38  0  0  0  0  0  0  0  0999 V2000
   -0.5348    0.8167   -2.7499 S   0  0  0  0  0  2  0  0  0  0  0  0
   -2.3085   -0.2478   -3.1288 Si  0  0  0  0  0  4  0  0  0  0  0  0
   -3.4837    0.5645   -2.7043 H   0  0  0  0  0  0  0  0  0  0  0  0
   -2.3508   -1.4816   -2.3452 H   0  0  0  0  0  0  0  0  0  0  0  0
    0.7513    0.9719   -4.4372 Si  0  0  0  0  0  4  0  0  0  0  0  0
    1.3108   -0.3375   -4.8380 H   0  0  0  0  0  0  0  0  0  0  0  0
    1.9196    1.7982   -4.0340 H   0  0  0  0  0  0  0  0  0  0  0  0
   -2.6027   -0.7648   -5.2654 Si  0  0  0  0  0  4  0  0  0  0  0  0
   -2.9275    0.4963   -5.9865 H   0  0  0  0  0  0  0  0  0  0  0  0
   -1.4598   -1.4492   -5.8453 H   0  0  0  0  0  0  0  0  0  0  0  0
   -0.2205    2.0137   -6.1494 Si  0  0  0  0  0  4  0  0  0  0  0  0
   -0.8585    1.0633   -7.0624 H   0  0  0  0  0  0  0  0  0  0  0  0
    0.8146    2.7258   -6.9524 H   0  0  0  0  0  0  0  0  0  0  0  0
   -1.6203    3.5410   -5.3674 Si  0  0  0  0  0  4  0  0  0  0  0  0
   -0.8119    4.6837   -4.8649 H   0  0  0  0  0  0  0  0  0  0  0  0
   -2.4859    3.0084   -4.3176 H   0  0  0  0  0  0  0  0  0  0  0  0
   -4.4677   -2.0267   -5.3854 Si  0  0  0  0  0  4  0  0  0  0  0  0
   -4.7122   -2.6796   -4.0828 H   0  0  0  0  0  0  0  0  0  0  0  0
   -5.6431   -1.1967   -5.6680 H   0  0  0  0  0  0  0  0  0  0  0  0
   -4.2818   -3.5968   -6.9280 Si  0  0  0  0  0  4  0  0  0  0  0  0
   -5.6065   -3.7796   -7.5832 H   0  0  0  0  0  0  0  0  0  0  0  0
   -3.9441   -4.9168   -6.3493 H   0  0  0  0  0  0  0  0  0  0  0  0
   -2.9260    4.3627   -6.9946 Si  0  0  0  0  0  4  0  0  0  0  0  0
   -3.7700    3.2698   -7.4761 H   0  0  0  0  0  0  0  0  0  0  0  0
   -2.1004    4.8470   -8.1152 H   0  0  0  0  0  0  0  0  0  0  0  0
   -2.8131   -3.0331   -8.4987 Si  0  0  0  0  0  4  0  0  0  0  0  0
   -1.4660   -3.0084   -7.8894 H   0  0  0  0  0  0  0  0  0  0  0  0
   -2.8401   -3.9989   -9.5918 H   0  0  0  0  0  0  0  0  0  0  0  0
   -4.1980    5.9865   -6.2002 Si  0  0  0  0  0  4  0  0  0  0  0  0
   -5.5422    5.9228   -6.8322 H   0  0  0  0  0  0  0  0  0  0  0  0
   -3.6635    7.3260   -6.4779 H   0  0  0  0  0  0  0  0  0  0  0  0
   -4.4119    5.7016   -3.9842 Si  0  0  0  0  0  4  0  0  0  0  0  0
   -4.8510    4.3166   -3.7627 H   0  0  0  0  0  0  0  0  0  0  0  0
   -5.3588    6.6693   -3.4134 H   0  0  0  0  0  0  0  0  0  0  0  0
   -3.0741    5.8494   -3.3984 H   0  0  0  0  0  0  0  0  0  0  0  0
   -3.3670   -1.0250   -9.2886 Si  0  0  0  0  0  4  0  0  0  0  0  0
   -4.5574   -1.1589  -10.1294 H   0  0  0  0  0  0  0  0  0  0  0  0
   -2.2681   -0.5392  -10.1253 H   0  0  0  0  0  0  0  0  0  0  0  0
   -3.6202   -0.0603   -8.2214 H   0  0  0  0  0  0  0  0  0  0  0  0
  1  2  1  0
  1  5  1  0
  2  3  1  0
  2  4  1  0
  2  8  1  0
  5  6  1  0
  5  7  1  0
  5 11  1  0
  8  9  1  0
  8 10  1  0
  8 17  1  0
 11 12  1  0
 11 13  1  0
 11 14  1  0
 14 15  1  0
 14 16  1  0
 14 23  1  0
 17 18  1  0
 17 19  1  0
 17 20  1  0
 20 21  1  0
 20 22  1  0
 20 26  1  0
 23 24  1  0
 23 25  1  0
 23 29  1  0
 26 27  1  0
 26 28  1  0
 26 36  1  0
 29 30  1  0
 29 31  1  0
 29 32  1  0
 32 33  1  0
 32 34  1  0
 32 35  1  0
 36 37  1  0
 36 38  1  0
 36 39  1  0
M  CHG  1   1   1
M  RAD  1   1   2
M  END
$$$$

     RDKit          3D

 39 38  0  0  0  0  0  0  0  0999 V2000
   -0.5348    0.8167   -2.7499 S   0  0  0  0  0  2  0  0  0  0  0  0
   -0.4446   -0.5487   -4.4258 Si  0  0  0  0  0  4  0  0  0  0  0  0
    0.6689   -0.0727   -5.2806 H   0  0  0  0  0  0  0  0  0  0  0  0
   -0.2305   -1.9265   -3.9744 H   0  0  0  0  0  0  0  0  0  0  0  0
   -0.8449    2.7887   -3.5781 Si  0  0  0  0  0  4  0  0  0  0  0  0
   -2.1746    2.7574   -4.2287 H   0  0  0  0  0  0  0  0  0  0  0  0
   -0.8268    3.7420   -2.4726 H   0  0  0  0  0  0  0  0  0  0  0  0
   -2.3161   -0.3656   -5.6441 Si  0  0  0  0  0  4  0  0  0  0  0  0
   -3.3675   -1.2514   -5.1671 H   0  0  0  0  0  0  0  0  0  0  0  0
   -2.7489    1.0330   -5.5626 H   0  0  0  0  0  0  0  0  0  0  0  0
    0.7641    3.2442   -5.0770 Si  0  0  0  0  0  4  0  0  0  0  0  0
    1.6079    4.3428   -4.5578 H   0  0  0  0  0  0  0  0  0  0  0  0
    1.6238    2.0578   -5.2133 H   0  0  0  0  0  0  0  0  0  0  0  0
   -0.1975    3.8055   -6.9959 Si  0  0  0  0  0  4  0  0  0  0  0  0
   -0.7393    2.6096   -7.6158 H   0  0  0  0  0  0  0  0  0  0  0  0
   -1.3421    4.7042   -6.7056 H   0  0  0  0  0  0  0  0  0  0  0  0
   -1.7811   -0.7825   -7.7713 Si  0  0  0  0  0  4  0  0  0  0  0  0
   -2.9562   -0.6785   -8.6579 H   0  0  0  0  0  0  0  0  0  0  0  0
   -0.8486    0.2839   -8.1992 H   0  0  0  0  0  0  0  0  0  0  0  0
   -0.7916   -2.7853   -7.9737 Si  0  0  0  0  0  4  0  0  0  0  0  0
   -0.2048   -3.1471   -6.6670 H   0  0  0  0  0  0  0  0  0  0  0  0
   -1.7297   -3.7855   -8.4529 H   0  0  0  0  0  0  0  0  0  0  0  0
    1.2448    4.7665   -8.4014 Si  0  0  0  0  0  4  0  0  0  0  0  0
    0.8709    6.1923   -8.5028 H   0  0  0  0  0  0  0  0  0  0  0  0
    2.6262    4.6969   -7.9023 H   0  0  0  0  0  0  0  0  0  0  0  0
    0.9406   -2.5328   -9.3948 Si  0  0  0  0  0  4  0  0  0  0  0  0
    1.9533   -3.5499   -9.1869 H   0  0  0  0  0  0  0  0  0  0  0  0
    0.3992   -2.5899  -10.7566 H   0  0  0  0  0  0  0  0  0  0  0  0
    1.0569    3.8397  -10.4133 Si  0  0  0  0  0  4  0  0  0  0  0  0
   -0.3793    3.6144  -10.6752 H   0  0  0  0  0  0  0  0  0  0  0  0
    1.7685    2.5583  -10.4038 H   0  0  0  0  0  0  0  0  0  0  0  0
    1.8556    5.1332  -12.0206 Si  0  0  0  0  0  4  0  0  0  0  0  0
    0.8094    5.4982  -13.0031 H   0  0  0  0  0  0  0  0  0  0  0  0
    2.9202    4.4580  -12.8015 H   0  0  0  0  0  0  0  0  0  0  0  0
    2.4160    6.3831  -11.5124 H   0  0  0  0  0  0  0  0  0  0  0  0
    1.7538   -0.4653   -9.0048 Si  0  0  0  0  0  4  0  0  0  0  0  0
    0.8083    0.4716   -9.6381 H   0  0  0  0  0  0  0  0  0  0  0  0
    1.6853   -0.2071   -7.5490 H   0  0  0  0  0  0  0  0  0  0  0  0
    3.1102   -0.3248   -9.4970 H   0  0  0  0  0  0  0  0  0  0  0  0
  1  2  1  0
  1  5  1  0
  2  3  1  0
  2  4  1  0
  2  8  1  0
  5  6  1  0
  5  7  1  0
  5 11  1  0
  8  9  1  0
  8 10  1  0
  8 17  1  0
 11 12  1  0
 11 13  1  0
 11 14  1  0
 14 15  1  0
 14 16  1  0
 14 23  1  0
 17 18  1  0
 17 19  1  0
 17 20  1  0
 20 21  1  0
 20 22  1  0
 20 26  1  0
 23 24  1  0
 23 25  1  0
 23 29  1  0
 26 27  1  0
 26 28  1  0
 26 36  1  0
 29 30  1  0
 29 31  1  0
 29 32  1  0
 32 33  1  0
 32 34  1  0
 32 35  1  0
 36 37  1  0
 36 38  1  0
 36 39  1  0
M  CHG  1   1   1
M  RAD  1   1   2
M  END
$$$$

     RDKit          3D

 39 38  0  0  0  0  0  0  0  0999 V2000
   -0.5348    0.8167   -2.7499 S   0  0  0  0  0  2  0  0  0  0  0  0
   -0.5272    2.9104   -2.4388 Si  0  0  0  0  0  4  0  0  0  0  0  0
   -1.7120    3.2953   -1.6707 H   0  0  0  0  0  0  0  0  0  0  0  0
    0.6612    3.2749   -1.6374 H   0  0  0  0  0  0  0  0  0  0  0  0
   -0.5964    0.2781   -4.8125 Si  0  0  0  0  0  4  0  0  0  0  0  0
    0.7731   -0.1232   -5.2202 H   0  0  0  0  0  0  0  0  0  0  0  0
   -1.0068    1.3752   -5.6778 H   0  0  0  0  0  0  0  0  0  0  0  0
   -0.4816    4.0714   -4.3266 Si  0  0  0  0  0  4  0  0  0  0  0  0
   -1.2719    3.4601   -5.3928 H   0  0  0  0  0  0  0  0  0  0  0  0
   -1.0981    5.3965   -4.0504 H   0  0  0  0  0  0  0  0  0  0  0  0
   -1.8974   -1.5189   -5.0332 Si  0  0  0  0  0  4  0  0  0  0  0  0
   -1.2997   -2.4800   -5.9872 H   0  0  0  0  0  0  0  0  0  0  0  0
   -1.9662   -2.2343   -3.7340 H   0  0  0  0  0  0  0  0  0  0  0  0
   -3.9573   -0.9849   -5.6520 Si  0  0  0  0  0  4  0  0  0  0  0  0
   -4.3306   -1.7384   -6.8733 H   0  0  0  0  0  0  0  0  0  0  0  0
   -4.9411   -1.3897   -4.6184 H   0  0  0  0  0  0  0  0  0  0  0  0
    1.6227    4.4775   -4.9781 Si  0  0  0  0  0  4  0  0  0  0  0  0
    1.9972    3.5714   -6.0657 H   0  0  0  0  0  0  0  0  0  0  0  0
    2.5583    4.3708   -3.8324 H   0  0  0  0  0  0  0  0  0  0  0  0
    1.7959    6.5859   -5.7338 Si  0  0  0  0  0  4  0  0  0  0  0  0
    2.7570    6.6536   -6.8339 H   0  0  0  0  0  0  0  0  0  0  0  0
    2.2404    7.4917   -4.6671 H   0  0  0  0  0  0  0  0  0  0  0  0
   -4.1682    1.1781   -6.1131 Si  0  0  0  0  0  4  0  0  0  0  0  0
   -5.5234    1.5940   -5.6829 H   0  0  0  0  0  0  0  0  0  0  0  0
   -3.2187    2.0078   -5.3741 H   0  0  0  0  0  0  0  0  0  0  0  0
   -0.2342    7.2242   -6.4286 Si  0  0  0  0  0  4  0  0  0  0  0  0
   -1.2701    6.3214   -5.8828 H   0  0  0  0  0  0  0  0  0  0  0  0
   -0.4993    8.6217   -6.0839 H   0  0  0  0  0  0  0  0  0  0  0  0
   -4.0012    1.5413   -8.3137 Si  0  0  0  0  0  4  0  0  0  0  0  0
   -4.0888    0.2384   -9.0112 H   0  0  0  0  0  0  0  0  0  0  0  0
   -5.1397    2.3457   -8.8007 H   0  0  0  0  0  0  0  0  0  0  0  0
   -2.1258    2.6263   -8.8219 Si  0  0  0  0  0  4  0  0  0  0  0  0
   -1.4475    1.8592   -9.8889 H   0  0  0  0  0  0  0  0  0  0  0  0
   -2.3975    3.9875   -9.3159 H   0  0  0  0  0  0  0  0  0  0  0  0
   -1.2137    2.7360   -7.6874 H   0  0  0  0  0  0  0  0  0  0  0  0
   -0.2731    7.0158   -8.6603 Si  0  0  0  0  0  4  0  0  0  0  0  0
   -0.2360    5.5917   -9.0380 H   0  0  0  0  0  0  0  0  0  0  0  0
    0.9007    7.6964   -9.2059 H   0  0  0  0  0  0  0  0  0  0  0  0
   -1.4940    7.6251   -9.1796 H   0  0  0  0  0  0  0  0  0  0  0  0
  1  2  1  0
  1  5  1  0
  2  3  1  0
  2  4  1  0
  2  8  1  0
  5  6  1  0
  5  7  1  0
  5 11  1  0
  8  9  1  0
  8 10  1  0
  8 17  1  0
 11 12  1  0
 11 13  1  0
 11 14  1  0
 14 15  1  0
 14 16  1  0
 14 23  1  0
 17 18  1  0
 17 19  1  0
 17 20  1  0
 20 21  1  0
 20 22  1  0
 20 26  1  0
 23 24  1  0
 23 25  1  0
 23 29  1  0
 26 27  1  0
 26 28  1  0
 26 36  1  0
 29 30  1  0
 29 31  1  0
 29 32  1  0
 32 33  1  0
 32 34  1  0
 32 35  1  0
 36 37  1  0
 36 38  1  0
 36 39  1  0
M  CHG  1   1   1
M  RAD  1   1   2
M  END
$$$$

     RDKit          3D

 39 38  0  0  0  0  0  0  0  0999 V2000
   -0.5348    0.8167   -2.7499 S   0  0  0  0  0  2  0  0  0  0  0  0
    1.0986    1.3812   -3.9484 Si  0  0  0  0  0  4  0  0  0  0  0  0
    1.4321    0.2803   -4.8959 H   0  0  0  0  0  0  0  0  0  0  0  0
    2.2906    1.6015   -3.1306 H   0  0  0  0  0  0  0  0  0  0  0  0
   -2.1212    2.2340   -2.7367 Si  0  0  0  0  0  4  0  0  0  0  0  0
   -1.7360    3.5006   -2.0769 H   0  0  0  0  0  0  0  0  0  0  0  0
   -3.2178    1.6694   -1.9067 H   0  0  0  0  0  0  0  0  0  0  0  0
    0.7329    3.2034   -5.1586 Si  0  0  0  0  0  4  0  0  0  0  0  0
   -0.2303    2.8369   -6.2326 H   0  0  0  0  0  0  0  0  0  0  0  0
    0.2670    4.3272   -4.3643 H   0  0  0  0  0  0  0  0  0  0  0  0
   -2.9605    2.5840   -4.7701 Si  0  0  0  0  0  4  0  0  0  0  0  0
   -2.3124    3.7196   -5.4290 H   0  0  0  0  0  0  0  0  0  0  0  0
   -4.4041    2.9403   -4.6592 H   0  0  0  0  0  0  0  0  0  0  0  0
   -2.8281    0.7088   -5.9406 Si  0  0  0  0  0  4  0  0  0  0  0  0
   -3.8815   -0.2145   -5.4406 H   0  0  0  0  0  0  0  0  0  0  0  0
   -1.5053    0.0949   -5.8491 H   0  0  0  0  0  0  0  0  0  0  0  0
    2.6639    3.6868   -6.2183 Si  0  0  0  0  0  4  0  0  0  0  0  0
    3.8001    3.1075   -5.4725 H   0  0  0  0  0  0  0  0  0  0  0  0
    2.6895    3.0886   -7.5568 H   0  0  0  0  0  0  0  0  0  0  0  0
    2.9734    5.8683   -6.3763 Si  0  0  0  0  0  4  0  0  0  0  0  0
    3.6214    6.1637   -7.6840 H   0  0  0  0  0  0  0  0  0  0  0  0
    3.9094    6.3794   -5.3496 H   0  0  0  0  0  0  0  0  0  0  0  0
   -3.2811    1.0642   -8.1077 Si  0  0  0  0  0  4  0  0  0  0  0  0
   -2.2315    1.9318   -8.6405 H   0  0  0  0  0  0  0  0  0  0  0  0
   -4.5766    1.7518   -8.2517 H   0  0  0  0  0  0  0  0  0  0  0  0
    1.0482    6.9771   -6.3002 Si  0  0  0  0  0  4  0  0  0  0  0  0
    0.4749    6.8228   -4.9459 H   0  0  0  0  0  0  0  0  0  0  0  0
    1.2634    8.3920   -6.5840 H   0  0  0  0  0  0  0  0  0  0  0  0
   -3.2861   -0.8536   -9.2067 Si  0  0  0  0  0  4  0  0  0  0  0  0
   -2.6976   -0.6567  -10.5577 H   0  0  0  0  0  0  0  0  0  0  0  0
   -4.6347   -1.3990   -9.4086 H   0  0  0  0  0  0  0  0  0  0  0  0
   -2.0361   -2.3286   -8.0668 Si  0  0  0  0  0  4  0  0  0  0  0  0
   -0.7375   -1.6913   -7.8069 H   0  0  0  0  0  0  0  0  0  0  0  0
   -1.8845   -3.5851   -8.8134 H   0  0  0  0  0  0  0  0  0  0  0  0
   -2.6972   -2.5479   -6.7748 H   0  0  0  0  0  0  0  0  0  0  0  0
   -0.3136    6.1247   -7.8435 Si  0  0  0  0  0  4  0  0  0  0  0  0
    0.1426    6.5537   -9.1663 H   0  0  0  0  0  0  0  0  0  0  0  0
   -1.6559    6.6667   -7.6244 H   0  0  0  0  0  0  0  0  0  0  0  0
   -0.3702    4.6661   -7.7879 H   0  0  0  0  0  0  0  0  0  0  0  0
  1  2  1  0
  1  5  1  0
  2  3  1  0
  2  4  1  0
  2  8  1  0
  5  6  1  0
  5  7  1  0
  5 11  1  0
  8  9  1  0
  8 10  1  0
  8 17  1  0
 11 12  1  0
 11 13  1  0
 11 14  1  0
 14 15  1  0
 14 16  1  0
 14 23  1  0
 17 18  1  0
 17 19  1  0
 17 20  1  0
 20 21  1  0
 20 22  1  0
 20 26  1  0
 23 24  1  0
 23 25  1  0
 23 29  1  0
 26 27  1  0
 26 28  1  0
 26 36  1  0
 29 30  1  0
 29 31  1  0
 29 32  1  0
 32 33  1  0
 32 34  1  0
 32 35  1  0
 36 37  1  0
 36 38  1  0
 36 39  1  0
M  CHG  1   1   1
M  RAD  1   1   2
M  END
$$$$

     RDKit          3D

 39 38  0  0  0  0  0  0  0  0999 V2000
   -0.5348    0.8167   -2.7499 S   0  0  0  0  0  2  0  0  0  0  0  0
   -0.2440   -0.8632   -4.0043 Si  0  0  0  0  0  4  0  0  0  0  0  0
    1.1397   -0.8849   -4.4802 H   0  0  0  0  0  0  0  0  0  0  0  0
   -0.4644   -2.0964   -3.2180 H   0  0  0  0  0  0  0  0  0  0  0  0
   -2.0101    2.1675   -3.4898 Si  0  0  0  0  0  4  0  0  0  0  0  0
   -3.2591    1.9455   -2.7194 H   0  0  0  0  0  0  0  0  0  0  0  0
   -2.3211    1.9593   -4.8972 H   0  0  0  0  0  0  0  0  0  0  0  0
   -1.6091   -0.8931   -5.7506 Si  0  0  0  0  0  4  0  0  0  0  0  0
   -1.8626    0.4366   -6.3006 H   0  0  0  0  0  0  0  0  0  0  0  0
   -0.9413   -1.6746   -6.8254 H   0  0  0  0  0  0  0  0  0  0  0  0
   -1.3382    4.2495   -3.0605 Si  0  0  0  0  0  4  0  0  0  0  0  0
   -2.4736    5.0771   -2.5950 H   0  0  0  0  0  0  0  0  0  0  0  0
   -0.3703    4.2277   -1.9348 H   0  0  0  0  0  0  0  0  0  0  0  0
   -0.3576    5.1863   -4.8133 Si  0  0  0  0  0  4  0  0  0  0  0  0
   -1.0145    6.4770   -5.1313 H   0  0  0  0  0  0  0  0  0  0  0  0
    1.0552    5.5227   -4.5110 H   0  0  0  0  0  0  0  0  0  0  0  0
   -3.5124   -1.9736   -5.2736 Si  0  0  0  0  0  4  0  0  0  0  0  0
   -4.5901   -1.0125   -5.0307 H   0  0  0  0  0  0  0  0  0  0  0  0
   -3.3247   -2.8861   -4.1197 H   0  0  0  0  0  0  0  0  0  0  0  0
   -4.1103   -3.2711   -7.0072 Si  0  0  0  0  0  4  0  0  0  0  0  0
   -5.5670   -3.3186   -7.1271 H   0  0  0  0  0  0  0  0  0  0  0  0
   -3.6095   -4.6406   -6.8360 H   0  0  0  0  0  0  0  0  0  0  0  0
   -0.4761    3.9129   -6.6299 Si  0  0  0  0  0  4  0  0  0  0  0  0
    0.7800    4.1067   -7.3910 H   0  0  0  0  0  0  0  0  0  0  0  0
   -0.5623    2.4881   -6.3156 H   0  0  0  0  0  0  0  0  0  0  0  0
   -3.2019   -2.3920   -8.8548 Si  0  0  0  0  0  4  0  0  0  0  0  0
   -2.1247   -1.4449   -8.4956 H   0  0  0  0  0  0  0  0  0  0  0  0
   -2.7229   -3.4368   -9.7608 H   0  0  0  0  0  0  0  0  0  0  0  0
   -2.1784    4.5467   -7.9347 Si  0  0  0  0  0  4  0  0  0  0  0  0
   -2.6688    5.8602   -7.4594 H   0  0  0  0  0  0  0  0  0  0  0  0
   -1.7248    4.7557   -9.3244 H   0  0  0  0  0  0  0  0  0  0  0  0
   -3.7978    3.0205   -7.9625 Si  0  0  0  0  0  4  0  0  0  0  0  0
   -5.0643    3.7153   -7.6455 H   0  0  0  0  0  0  0  0  0  0  0  0
   -3.9252    2.3814   -9.2838 H   0  0  0  0  0  0  0  0  0  0  0  0
   -3.5949    1.9662   -6.9734 H   0  0  0  0  0  0  0  0  0  0  0  0
   -4.8047   -1.2195   -9.8950 Si  0  0  0  0  0  4  0  0  0  0  0  0
   -5.1522   -0.0240   -9.1063 H   0  0  0  0  0  0  0  0  0  0  0  0
   -5.9837   -2.0738  -10.0317 H   0  0  0  0  0  0  0  0  0  0  0  0
   -4.3246   -0.8108  -11.2118 H   0  0  0  0  0  0  0  0  0  0  0  0
  1  2  1  0
  1  5  1  0
  2  3  1  0
  2  4  1  0
  2  8  1  0
  5  6  1  0
  5  7  1  0
  5 11  1  0
  8  9  1  0
  8 10  1  0
  8 17  1  0
 11 12  1  0
 11 13  1  0
 11 14  1  0
 14 15  1  0
 14 16  1  0
 14 23  1  0
 17 18  1  0
 17 19  1  0
 17 20  1  0
 20 21  1  0
 20 22  1  0
 20 26  1  0
 23 24  1  0
 23 25  1  0
 23 29  1  0
 26 27  1  0
 26 28  1  0
 26 36  1  0
 29 30  1  0
 29 31  1  0
 29 32  1  0
 32 33  1  0
 32 34  1  0
 32 35  1  0
 36 37  1  0
 36 38  1  0
 36 39  1  0
M  CHG  1   1   1
M  RAD  1   1   2
M  END
$$$$

     RDKit          3D

 39 38  0  0  0  0  0  0  0  0999 V2000
   -0.5348    0.8167   -2.7499 S   0  0  0  0  0  2  0  0  0  0  0  0
   -0.8541   -0.6627   -4.2960 Si  0  0  0  0  0  4  0  0  0  0  0  0
    0.2547   -0.4874   -5.2640 H   0  0  0  0  0  0  0  0  0  0  0  0
   -0.8754   -2.0169   -3.7358 H   0  0  0  0  0  0  0  0  0  0  0  0
   -0.5233    2.7417   -3.7323 Si  0  0  0  0  0  4  0  0  0  0  0  0
   -1.8837    2.9292   -4.2862 H   0  0  0  0  0  0  0  0  0  0  0  0
   -0.2267    3.7533   -2.7225 H   0  0  0  0  0  0  0  0  0  0  0  0
   -2.7500   -0.2001   -5.3968 Si  0  0  0  0  0  4  0  0  0  0  0  0
   -3.9098   -0.8170   -4.7709 H   0  0  0  0  0  0  0  0  0  0  0  0
   -2.8934    1.2590   -5.4148 H   0  0  0  0  0  0  0  0  0  0  0  0
    1.0113    2.7481   -5.3718 Si  0  0  0  0  0  4  0  0  0  0  0  0
    2.0938    3.6906   -5.0134 H   0  0  0  0  0  0  0  0  0  0  0  0
    1.6087    1.4060   -5.4566 H   0  0  0  0  0  0  0  0  0  0  0  0
    0.0193    3.3434   -7.2647 Si  0  0  0  0  0  4  0  0  0  0  0  0
   -0.7955    2.2374   -7.7346 H   0  0  0  0  0  0  0  0  0  0  0  0
   -0.8996    4.4736   -6.9814 H   0  0  0  0  0  0  0  0  0  0  0  0
   -2.4878   -0.8773   -7.5082 Si  0  0  0  0  0  4  0  0  0  0  0  0
   -3.6905   -0.6068   -8.3193 H   0  0  0  0  0  0  0  0  0  0  0  0
   -1.4048   -0.0563   -8.0939 H   0  0  0  0  0  0  0  0  0  0  0  0
   -1.9283   -3.0478   -7.5927 Si  0  0  0  0  0  4  0  0  0  0  0  0
   -1.3152   -3.4195   -6.3009 H   0  0  0  0  0  0  0  0  0  0  0  0
   -3.0803   -3.8722   -7.9139 H   0  0  0  0  0  0  0  0  0  0  0  0
    1.4975    3.8841   -8.8464 Si  0  0  0  0  0  4  0  0  0  0  0  0
    1.4015    5.3441   -9.0525 H   0  0  0  0  0  0  0  0  0  0  0  0
    2.8759    3.5761   -8.4374 H   0  0  0  0  0  0  0  0  0  0  0  0
   -0.3062   -3.2585   -9.1446 Si  0  0  0  0  0  4  0  0  0  0  0  0
    0.5027   -4.4398   -8.9131 H   0  0  0  0  0  0  0  0  0  0  0  0
   -0.9612   -3.3092  -10.4558 H   0  0  0  0  0  0  0  0  0  0  0  0
    0.9636    2.8633  -10.7478 Si  0  0  0  0  0  4  0  0  0  0  0  0
   -0.5058    2.9125  -10.8904 H   0  0  0  0  0  0  0  0  0  0  0  0
    1.4100    1.4695  -10.6690 H   0  0  0  0  0  0  0  0  0  0  0  0
    1.8607    3.8431  -12.5170 Si  0  0  0  0  0  4  0  0  0  0  0  0
    0.8266    4.3351  -13.4559 H   0  0  0  0  0  0  0  0  0  0  0  0
    2.7035    2.9097  -13.3027 H   0  0  0  0  0  0  0  0  0  0  0  0
    2.6947    4.9895  -12.1643 H   0  0  0  0  0  0  0  0  0  0  0  0
    0.9243   -1.3734   -9.0013 Si  0  0  0  0  0  4  0  0  0  0  0  0
    0.1296   -0.3165   -9.6524 H   0  0  0  0  0  0  0  0  0  0  0  0
    1.0304   -0.9964   -7.5739 H   0  0  0  0  0  0  0  0  0  0  0  0
    2.2356   -1.5469   -9.5946 H   0  0  0  0  0  0  0  0  0  0  0  0
  1  2  1  0
  1  5  1  0
  2  3  1  0
  2  4  1  0
  2  8  1  0
  5  6  1  0
  5  7  1  0
  5 11  1  0
  8  9  1  0
  8 10  1  0
  8 17  1  0
 11 12  1  0
 11 13  1  0
 11 14  1  0
 14 15  1  0
 14 16  1  0
 14 23  1  0
 17 18  1  0
 17 19  1  0
 17 20  1  0
 20 21  1  0
 20 22  1  0
 20 26  1  0
 23 24  1  0
 23 25  1  0
 23 29  1  0
 26 27  1  0
 26 28  1  0
 26 36  1  0
 29 30  1  0
 29 31  1  0
 29 32  1  0
 32 33  1  0
 32 34  1  0
 32 35  1  0
 36 37  1  0
 36 38  1  0
 36 39  1  0
M  CHG  1   1   1
M  RAD  1   1   2
M  END
$$$$

     RDKit          3D

 39 38  0  0  0  0  0  0  0  0999 V2000
   -0.5348    0.8167   -2.7499 S   0  0  0  0  0  2  0  0  0  0  0  0
    0.0212   -1.0727   -3.6069 Si  0  0  0  0  0  4  0  0  0  0  0  0
    0.8047   -1.7950   -2.5869 H   0  0  0  0  0  0  0  0  0  0  0  0
    0.8159   -0.9090   -4.8240 H   0  0  0  0  0  0  0  0  0  0  0  0
    0.5932    2.4264   -3.5723 Si  0  0  0  0  0  4  0  0  0  0  0  0
    1.2454    3.1361   -2.4383 H   0  0  0  0  0  0  0  0  0  0  0  0
    1.6828    1.9659   -4.4429 H   0  0  0  0  0  0  0  0  0  0  0  0
   -1.8589   -2.1955   -4.0522 Si  0  0  0  0  0  4  0  0  0  0  0  0
   -2.5934   -2.3320   -2.7780 H   0  0  0  0  0  0  0  0  0  0  0  0
   -2.6934   -1.4179   -4.9624 H   0  0  0  0  0  0  0  0  0  0  0  0
   -0.6982    3.9111   -4.6146 Si  0  0  0  0  0  4  0  0  0  0  0  0
   -0.8879    5.1356   -3.8131 H   0  0  0  0  0  0  0  0  0  0  0  0
   -0.0765    4.3325   -5.8831 H   0  0  0  0  0  0  0  0  0  0  0  0
   -2.7376    3.0710   -5.0194 Si  0  0  0  0  0  4  0  0  0  0  0  0
   -3.0335    2.1113   -3.9397 H   0  0  0  0  0  0  0  0  0  0  0  0
   -3.7483    4.1279   -5.0471 H   0  0  0  0  0  0  0  0  0  0  0  0
   -1.4546   -4.2018   -4.8844 Si  0  0  0  0  0  4  0  0  0  0  0  0
   -2.6139   -5.0866   -4.6696 H   0  0  0  0  0  0  0  0  0  0  0  0
   -0.3235   -4.8174   -4.1558 H   0  0  0  0  0  0  0  0  0  0  0  0
   -0.8866   -4.1158   -7.0357 Si  0  0  0  0  0  4  0  0  0  0  0  0
    0.3404   -3.2887   -7.1319 H   0  0  0  0  0  0  0  0  0  0  0  0
   -0.5025   -5.4705   -7.4688 H   0  0  0  0  0  0  0  0  0  0  0  0
   -2.7602    2.0400   -6.9930 Si  0  0  0  0  0  4  0  0  0  0  0  0
   -2.8802    3.0660   -8.0465 H   0  0  0  0  0  0  0  0  0  0  0  0
   -3.9507    1.1637   -7.0511 H   0  0  0  0  0  0  0  0  0  0  0  0
   -2.4883   -3.2882   -8.3046 Si  0  0  0  0  0  4  0  0  0  0  0  0
   -2.0512   -1.9749   -8.8338 H   0  0  0  0  0  0  0  0  0  0  0  0
   -2.6512   -4.1677   -9.4854 H   0  0  0  0  0  0  0  0  0  0  0  0
   -0.8729    0.8876   -7.2135 Si  0  0  0  0  0  4  0  0  0  0  0  0
    0.1237    1.2672   -6.1839 H   0  0  0  0  0  0  0  0  0  0  0  0
   -1.1799   -0.5407   -6.9689 H   0  0  0  0  0  0  0  0  0  0  0  0
    0.0512    1.2131   -9.2044 Si  0  0  0  0  0  4  0  0  0  0  0  0
    0.8889    2.4185   -9.1360 H   0  0  0  0  0  0  0  0  0  0  0  0
   -0.9529    1.4210  -10.2458 H   0  0  0  0  0  0  0  0  0  0  0  0
    0.9306    0.0687   -9.5080 H   0  0  0  0  0  0  0  0  0  0  0  0
   -4.4362   -3.1405   -7.2676 Si  0  0  0  0  0  4  0  0  0  0  0  0
   -4.3275   -3.2199   -5.8155 H   0  0  0  0  0  0  0  0  0  0  0  0
   -5.3989   -4.1323   -7.8042 H   0  0  0  0  0  0  0  0  0  0  0  0
   -5.0191   -1.8115   -7.5809 H   0  0  0  0  0  0  0  0  0  0  0  0
  1  2  1  0
  1  5  1  0
  2  3  1  0
  2  4  1  0
  2  8  1  0
  5  6  1  0
  5  7  1  0
  5 11  1  0
  8  9  1  0
  8 10  1  0
  8 17  1  0
 11 12  1  0
 11 13  1  0
 11 14  1  0
 14 15  1  0
 14 16  1  0
 14 23  1  0
 17 18  1  0
 17 19  1  0
 17 20  1  0
 20 21  1  0
 20 22  1  0
 20 26  1  0
 23 24  1  0
 23 25  1  0
 23 29  1  0
 26 27  1  0
 26 28  1  0
 26 36  1  0
 29 30  1  0
 29 31  1  0
 29 32  1  0
 32 33  1  0
 32 34  1  0
 32 35  1  0
 36 37  1  0
 36 38  1  0
 36 39  1  0
M  CHG  1   1   1
M  RAD  1   1   2
M  END
$$$$
