
     RDKit          3D

 39 38  0  0  0  0  0  0  0  0999 V2000
   -1.2666    0.1258    2.9495 S   0  0  0  0  0  2  0  0  0  0  0  0
    0.3763   -0.5964    4.0951 Si  0  0  0  0  0  4  0  0  0  0  0  0
    1.3455   -1.3401    3.2835 H   0  0  0  0  0  0  0  0  0  0  0  0
    1.0172    0.5636    4.7478 H   0  0  0  0  0  0  0  0  0  0  0  0
   -3.0226    0.3872    4.1587 Si  0  0  0  0  0  4  0  0  0  0  0  0
   -3.1669   -0.7151    5.1118 H   0  0  0  0  0  0  0  0  0  0  0  0
   -4.1865    0.3165    3.2306 H   0  0  0  0  0  0  0  0  0  0  0  0
   -0.2992   -1.9729    5.7327 Si  0  0  0  0  0  4  0  0  0  0  0  0
   -0.4255   -3.3608    5.2247 H   0  0  0  0  0  0  0  0  0  0  0  0
   -1.6020   -1.5778    6.2323 H   0  0  0  0  0  0  0  0  0  0  0  0
   -3.0643    2.3354    5.1794 Si  0  0  0  0  0  4  0  0  0  0  0  0
   -1.6773    2.8363    5.3707 H   0  0  0  0  0  0  0  0  0  0  0  0
   -3.7073    3.3237    4.2661 H   0  0  0  0  0  0  0  0  0  0  0  0
   -4.1818    2.3316    7.0773 Si  0  0  0  0  0  4  0  0  0  0  0  0
   -5.6115    2.5205    6.7859 H   0  0  0  0  0  0  0  0  0  0  0  0
   -3.7636    3.5394    7.8472 H   0  0  0  0  0  0  0  0  0  0  0  0
    1.2720   -1.9069    7.3388 Si  0  0  0  0  0  4  0  0  0  0  0  0
    2.3231   -2.8920    7.0016 H   0  0  0  0  0  0  0  0  0  0  0  0
    0.6820   -2.1670    8.6456 H   0  0  0  0  0  0  0  0  0  0  0  0
    2.1681    0.1476    7.2974 Si  0  0  0  0  0  4  0  0  0  0  0  0
    3.1775    0.2985    8.3374 H   0  0  0  0  0  0  0  0  0  0  0  0
    2.8222    0.3711    5.9990 H   0  0  0  0  0  0  0  0  0  0  0  0
   -3.9245    0.5156    8.2822 Si  0  0  0  0  0  4  0  0  0  0  0  0
   -2.7604   -0.2945    7.8970 H   0  0  0  0  0  0  0  0  0  0  0  0
   -3.6865    0.9130    9.7018 H   0  0  0  0  0  0  0  0  0  0  0  0
    0.5444    1.6542    7.5054 Si  0  0  0  0  0  4  0  0  0  0  0  0
    0.8193    2.8580    6.7115 H   0  0  0  0  0  0  0  0  0  0  0  0
   -0.7315    1.0194    7.1075 H   0  0  0  0  0  0  0  0  0  0  0  0
   -5.7784   -0.7445    8.3397 Si  0  0  0  0  0  4  0  0  0  0  0  0
   -5.3996   -2.0565    8.9335 H   0  0  0  0  0  0  0  0  0  0  0  0
   -6.7644   -0.1250    9.2229 H   0  0  0  0  0  0  0  0  0  0  0  0
   -6.6179   -1.0891    6.3361 Si  0  0  0  0  0  4  0  0  0  0  0  0
   -7.5721   -0.0036    5.9715 H   0  0  0  0  0  0  0  0  0  0  0  0
   -5.6201   -1.2947    5.3056 H   0  0  0  0  0  0  0  0  0  0  0  0
   -7.4495   -2.3254    6.3872 H   0  0  0  0  0  0  0  0  0  0  0  0
    0.3267    2.2528    9.6511 Si  0  0  0  0  0  4  0  0  0  0  0  0
    1.6417    2.5754   10.2138 H   0  0  0  0  0  0  0  0  0  0  0  0
   -0.6045    3.3873    9.7491 H   0  0  0  0  0  0  0  0  0  0  0  0
   -0.2856    1.1033   10.3536 H   0  0  0  0  0  0  0  0  0  0  0  0
  1  2  1  0
  1  5  1  0
  2  3  1  0
  2  4  1  0
  2  8  1  0
  5  6  1  0
  5  7  1  0
  5 11  1  0
  8  9  1  0
  8 10  1  0
  8 17  1  0
 11 12  1  0
 11 13  1  0
 11 14  1  0
 14 15  1  0
 14 16  1  0
 14 23  1  0
 17 18  1  0
 17 19  1  0
 17 20  1  0
 20 21  1  0
 20 22  1  0
 20 26  1  0
 23 24  1  0
 23 25  1  0
 23 29  1  0
 26 27  1  0
 26 28  1  0
 26 36  1  0
 29 30  1  0
 29 31  1  0
 29 32  1  0
 32 33  1  0
 32 34  1  0
 32 35  1  0
 36 37  1  0
 36 38  1  0
 36 39  1  0
M  CHG  1   1   1
M  RAD  1   1   2
M  END
$$$$

     RDKit          3D

 39 38  0  0  0  0  0  0  0  0999 V2000
   -1.2666    0.1258    2.9495 S   0  0  0  0  0  2  0  0  0  0  0  0
   -2.6903    1.6079    2.3660 Si  0  0  0  0  0  4  0  0  0  0  0  0
   -2.0891    2.9313    2.5046 H   0  0  0  0  0  0  0  0  0  0  0  0
   -3.1345    1.4219    0.9674 H   0  0  0  0  0  0  0  0  0  0  0  0
   -2.0741   -1.0334    4.5483 Si  0  0  0  0  0  4  0  0  0  0  0  0
   -1.5582   -2.4053    4.4226 H   0  0  0  0  0  0  0  0  0  0  0  0
   -3.5410   -1.1216    4.3694 H   0  0  0  0  0  0  0  0  0  0  0  0
   -4.5467    1.4481    3.6359 Si  0  0  0  0  0  4  0  0  0  0  0  0
   -5.0222    0.0486    3.4925 H   0  0  0  0  0  0  0  0  0  0  0  0
   -4.1840    1.6245    5.0392 H   0  0  0  0  0  0  0  0  0  0  0  0
   -1.5970   -0.1785    6.5371 Si  0  0  0  0  0  4  0  0  0  0  0  0
   -2.8112    0.3128    7.2160 H   0  0  0  0  0  0  0  0  0  0  0  0
   -1.0002   -1.2358    7.3911 H   0  0  0  0  0  0  0  0  0  0  0  0
   -0.1319    1.4881    6.4112 Si  0  0  0  0  0  4  0  0  0  0  0  0
    0.9924    1.0804    5.5694 H   0  0  0  0  0  0  0  0  0  0  0  0
    0.4131    1.7048    7.7750 H   0  0  0  0  0  0  0  0  0  0  0  0
   -6.0528    2.9188    2.9684 Si  0  0  0  0  0  4  0  0  0  0  0  0
   -5.4922    3.7277    1.8520 H   0  0  0  0  0  0  0  0  0  0  0  0
   -7.2378    2.2334    2.4191 H   0  0  0  0  0  0  0  0  0  0  0  0
   -6.6772    4.3065    4.5672 Si  0  0  0  0  0  4  0  0  0  0  0  0
   -5.9187    5.5786    4.4626 H   0  0  0  0  0  0  0  0  0  0  0  0
   -8.0952    4.6585    4.3536 H   0  0  0  0  0  0  0  0  0  0  0  0
   -1.0618    3.3845    5.7462 Si  0  0  0  0  0  4  0  0  0  0  0  0
   -0.4135    3.7951    4.4864 H   0  0  0  0  0  0  0  0  0  0  0  0
   -2.4867    3.2639    5.4853 H   0  0  0  0  0  0  0  0  0  0  0  0
   -6.4727    3.4435    6.5932 Si  0  0  0  0  0  4  0  0  0  0  0  0
   -7.4623    4.0479    7.5302 H   0  0  0  0  0  0  0  0  0  0  0  0
   -5.1476    3.8161    7.1226 H   0  0  0  0  0  0  0  0  0  0  0  0
   -0.7792    5.0206    7.2469 Si  0  0  0  0  0  4  0  0  0  0  0  0
   -0.1956    4.4099    8.4558 H   0  0  0  0  0  0  0  0  0  0  0  0
    0.0920    6.0816    6.7396 H   0  0  0  0  0  0  0  0  0  0  0  0
   -2.7202    5.9415    7.8239 Si  0  0  0  0  0  4  0  0  0  0  0  0
   -2.5051    7.2763    8.3892 H   0  0  0  0  0  0  0  0  0  0  0  0
   -3.4059    5.0869    8.8264 H   0  0  0  0  0  0  0  0  0  0  0  0
   -3.6206    6.0721    6.6682 H   0  0  0  0  0  0  0  0  0  0  0  0
   -6.6313    1.2282    6.5874 Si  0  0  0  0  0  4  0  0  0  0  0  0
   -7.8144    0.8489    7.3782 H   0  0  0  0  0  0  0  0  0  0  0  0
   -5.4536    0.6165    7.2217 H   0  0  0  0  0  0  0  0  0  0  0  0
   -6.7649    0.7625    5.2102 H   0  0  0  0  0  0  0  0  0  0  0  0
  1  2  1  0
  1  5  1  0
  2  3  1  0
  2  4  1  0
  2  8  1  0
  5  6  1  0
  5  7  1  0
  5 11  1  0
  8  9  1  0
  8 10  1  0
  8 17  1  0
 11 12  1  0
 11 13  1  0
 11 14  1  0
 14 15  1  0
 14 16  1  0
 14 23  1  0
 17 18  1  0
 17 19  1  0
 17 20  1  0
 20 21  1  0
 20 22  1  0
 20 26  1  0
 23 24  1  0
 23 25  1  0
 23 29  1  0
 26 27  1  0
 26 28  1  0
 26 36  1  0
 29 30  1  0
 29 31  1  0
 29 32  1  0
 32 33  1  0
 32 34  1  0
 32 35  1  0
 36 37  1  0
 36 38  1  0
 36 39  1  0
M  CHG  1   1   1
M  RAD  1   1   2
M  END
$$$$

     RDKit          3D

 39 38  0  0  0  0  0  0  0  0999 V2000
   -1.2666    0.1258    2.9495 S   0  0  0  0  0  2  0  0  0  0  0  0
    0.2904    1.2363    3.9016 Si  0  0  0  0  0  4  0  0  0  0  0  0
    1.3116    0.3119    4.3861 H   0  0  0  0  0  0  0  0  0  0  0  0
    0.9157    2.2077    2.9778 H   0  0  0  0  0  0  0  0  0  0  0  0
   -3.1194    0.5354    3.9249 Si  0  0  0  0  0  4  0  0  0  0  0  0
   -4.1890    0.4729    2.9168 H   0  0  0  0  0  0  0  0  0  0  0  0
   -3.0917    1.9312    4.4173 H   0  0  0  0  0  0  0  0  0  0  0  0
   -0.5484    2.4494    5.6072 Si  0  0  0  0  0  4  0  0  0  0  0  0
   -1.6301    3.2832    5.0242 H   0  0  0  0  0  0  0  0  0  0  0  0
   -1.1842    1.5512    6.5669 H   0  0  0  0  0  0  0  0  0  0  0  0
   -3.5182   -0.8587    5.6017 Si  0  0  0  0  0  4  0  0  0  0  0  0
   -3.4876   -0.1595    6.9004 H   0  0  0  0  0  0  0  0  0  0  0  0
   -4.8725   -1.4436    5.4369 H   0  0  0  0  0  0  0  0  0  0  0  0
   -2.0655   -2.5395    5.6670 Si  0  0  0  0  0  4  0  0  0  0  0  0
   -1.9358   -3.1183    4.3302 H   0  0  0  0  0  0  0  0  0  0  0  0
   -2.6460   -3.5953    6.5344 H   0  0  0  0  0  0  0  0  0  0  0  0
    1.0460    3.6680    6.5291 Si  0  0  0  0  0  4  0  0  0  0  0  0
    2.3393    3.3850    5.8492 H   0  0  0  0  0  0  0  0  0  0  0  0
    0.7841    5.1048    6.3232 H   0  0  0  0  0  0  0  0  0  0  0  0
    1.3078    3.2661    8.6836 Si  0  0  0  0  0  4  0  0  0  0  0  0
    2.4218    2.3067    8.8912 H   0  0  0  0  0  0  0  0  0  0  0  0
    1.7204    4.5195    9.3464 H   0  0  0  0  0  0  0  0  0  0  0  0
   -0.1194   -1.9432    6.5392 Si  0  0  0  0  0  4  0  0  0  0  0  0
    0.9230   -2.1486    5.5159 H   0  0  0  0  0  0  0  0  0  0  0  0
   -0.0730   -0.5454    6.9358 H   0  0  0  0  0  0  0  0  0  0  0  0
   -0.5378    2.5380    9.6604 Si  0  0  0  0  0  4  0  0  0  0  0  0
   -0.5574    2.9109   11.1037 H   0  0  0  0  0  0  0  0  0  0  0  0
   -0.5246    1.0636    9.6326 H   0  0  0  0  0  0  0  0  0  0  0  0
    0.4026   -3.1785    8.3309 Si  0  0  0  0  0  4  0  0  0  0  0  0
   -0.7787   -3.9994    8.6560 H   0  0  0  0  0  0  0  0  0  0  0  0
    1.5655   -4.0323    8.0848 H   0  0  0  0  0  0  0  0  0  0  0  0
    0.8474   -1.9032   10.0986 Si  0  0  0  0  0  4  0  0  0  0  0  0
    1.6405   -2.6482   11.0801 H   0  0  0  0  0  0  0  0  0  0  0  0
   -0.4203   -1.4542   10.7286 H   0  0  0  0  0  0  0  0  0  0  0  0
    1.6006   -0.6982    9.7192 H   0  0  0  0  0  0  0  0  0  0  0  0
   -2.3740    3.2454    8.6303 Si  0  0  0  0  0  4  0  0  0  0  0  0
   -3.1286    4.0962    9.5661 H   0  0  0  0  0  0  0  0  0  0  0  0
   -3.2364    2.1131    8.2593 H   0  0  0  0  0  0  0  0  0  0  0  0
   -1.9931    4.0034    7.4421 H   0  0  0  0  0  0  0  0  0  0  0  0
  1  2  1  0
  1  5  1  0
  2  3  1  0
  2  4  1  0
  2  8  1  0
  5  6  1  0
  5  7  1  0
  5 11  1  0
  8  9  1  0
  8 10  1  0
  8 17  1  0
 11 12  1  0
 11 13  1  0
 11 14  1  0
 14 15  1  0
 14 16  1  0
 14 23  1  0
 17 18  1  0
 17 19  1  0
 17 20  1  0
 20 21  1  0
 20 22  1  0
 20 26  1  0
 23 24  1  0
 23 25  1  0
 23 29  1  0
 26 27  1  0
 26 28  1  0
 26 36  1  0
 29 30  1  0
 29 31  1  0
 29 32  1  0
 32 33  1  0
 32 34  1  0
 32 35  1  0
 36 37  1  0
 36 38  1  0
 36 39  1  0
M  CHG  1   1   1
M  RAD  1   1   2
M  END
$$$$

     RDKit          3D

 39 38  0  0  0  0  0  0  0  0999 V2000
   -1.2666    0.1258    2.9495 S   0  0  0  0  0  2  0  0  0  0  0  0
   -2.4318    1.8545    2.4827 Si  0  0  0  0  0  4  0  0  0  0  0  0
   -1.6334    3.0519    2.7289 H   0  0  0  0  0  0  0  0  0  0  0  0
   -2.8780    1.8514    1.0724 H   0  0  0  0  0  0  0  0  0  0  0  0
   -2.2702   -1.0145    4.4476 Si  0  0  0  0  0  4  0  0  0  0  0  0
   -1.9732   -2.4362    4.2138 H   0  0  0  0  0  0  0  0  0  0  0  0
   -3.7299   -0.8569    4.2578 H   0  0  0  0  0  0  0  0  0  0  0  0
   -4.3099    1.8886    3.7302 Si  0  0  0  0  0  4  0  0  0  0  0  0
   -4.9961    0.5969    3.4734 H   0  0  0  0  0  0  0  0  0  0  0  0
   -3.9459    1.8947    5.1442 H   0  0  0  0  0  0  0  0  0  0  0  0
   -1.6962   -0.4047    6.5001 Si  0  0  0  0  0  4  0  0  0  0  0  0
   -2.8290    0.2161    7.2126 H   0  0  0  0  0  0  0  0  0  0  0  0
   -1.2853   -1.6066    7.2681 H   0  0  0  0  0  0  0  0  0  0  0  0
    0.0132    1.0157    6.5128 Si  0  0  0  0  0  4  0  0  0  0  0  0
    1.0729    0.5042    5.6442 H   0  0  0  0  0  0  0  0  0  0  0  0
    0.5641    1.0360    7.8912 H   0  0  0  0  0  0  0  0  0  0  0  0
   -5.5570    3.6256    3.1784 Si  0  0  0  0  0  4  0  0  0  0  0  0
   -4.8596    4.4219    2.1322 H   0  0  0  0  0  0  0  0  0  0  0  0
   -6.8259    3.1803    2.5723 H   0  0  0  0  0  0  0  0  0  0  0  0
   -5.9816    4.9637    4.8817 Si  0  0  0  0  0  4  0  0  0  0  0  0
   -5.0320    6.1051    4.8818 H   0  0  0  0  0  0  0  0  0  0  0  0
   -7.3237    5.5498    4.6929 H   0  0  0  0  0  0  0  0  0  0  0  0
   -0.5984    3.0811    5.9995 Si  0  0  0  0  0  4  0  0  0  0  0  0
    0.1257    3.4828    4.7786 H   0  0  0  0  0  0  0  0  0  0  0  0
   -2.0204    3.2067    5.7254 H   0  0  0  0  0  0  0  0  0  0  0  0
   -5.9460    3.9223    6.8324 Si  0  0  0  0  0  4  0  0  0  0  0  0
   -6.8434    4.5988    7.8120 H   0  0  0  0  0  0  0  0  0  0  0  0
   -4.5873    4.0392    7.3939 H   0  0  0  0  0  0  0  0  0  0  0  0
   -0.0868    4.5291    7.6275 Si  0  0  0  0  0  4  0  0  0  0  0  0
    0.3753    3.7408    8.7852 H   0  0  0  0  0  0  0  0  0  0  0  0
    0.9474    5.4767    7.2096 H   0  0  0  0  0  0  0  0  0  0  0  0
   -1.8687    5.6950    8.2708 Si  0  0  0  0  0  4  0  0  0  0  0  0
   -1.4564    6.9307    8.9421 H   0  0  0  0  0  0  0  0  0  0  0  0
   -2.6951    4.8824    9.1994 H   0  0  0  0  0  0  0  0  0  0  0  0
   -2.7195    6.0561    7.1267 H   0  0  0  0  0  0  0  0  0  0  0  0
   -6.4488    1.7668    6.6482 Si  0  0  0  0  0  4  0  0  0  0  0  0
   -7.6889    1.5169    7.4025 H   0  0  0  0  0  0  0  0  0  0  0  0
   -5.3913    0.9296    7.2348 H   0  0  0  0  0  0  0  0  0  0  0  0
   -6.6322    1.4380    5.2377 H   0  0  0  0  0  0  0  0  0  0  0  0
  1  2  1  0
  1  5  1  0
  2  3  1  0
  2  4  1  0
  2  8  1  0
  5  6  1  0
  5  7  1  0
  5 11  1  0
  8  9  1  0
  8 10  1  0
  8 17  1  0
 11 12  1  0
 11 13  1  0
 11 14  1  0
 14 15  1  0
 14 16  1  0
 14 23  1  0
 17 18  1  0
 17 19  1  0
 17 20  1  0
 20 21  1  0
 20 22  1  0
 20 26  1  0
 23 24  1  0
 23 25  1  0
 23 29  1  0
 26 27  1  0
 26 28  1  0
 26 36  1  0
 29 30  1  0
 29 31  1  0
 29 32  1  0
 32 33  1  0
 32 34  1  0
 32 35  1  0
 36 37  1  0
 36 38  1  0
 36 39  1  0
M  CHG  1   1   1
M  RAD  1   1   2
M  END
$$$$
