
     RDKit          3D

 39 38  0  0  0  0  0  0  0  0999 V2000
   -0.0007   -1.8967   -4.3130 S   0  0  0  0  0  2  0  0  0  0  0  0
   -0.8961   -0.3113   -5.3809 Si  0  0  0  0  0  4  0  0  0  0  0  0
   -0.6592   -0.4488   -6.8093 H   0  0  0  0  0  0  0  0  0  0  0  0
   -2.3694   -0.3826   -5.1648 H   0  0  0  0  0  0  0  0  0  0  0  0
    2.0122   -2.2722   -4.8454 Si  0  0  0  0  0  4  0  0  0  0  0  0
    2.5303   -3.3267   -3.9517 H   0  0  0  0  0  0  0  0  0  0  0  0
    2.8890   -1.0956   -4.6392 H   0  0  0  0  0  0  0  0  0  0  0  0
   -0.2410    1.6931   -4.6801 Si  0  0  0  0  0  4  0  0  0  0  0  0
   -0.2311    1.7018   -3.2032 H   0  0  0  0  0  0  0  0  0  0  0  0
   -1.2902    2.6718   -5.0825 H   0  0  0  0  0  0  0  0  0  0  0  0
    2.2248   -3.0303   -6.9269 Si  0  0  0  0  0  4  0  0  0  0  0  0
    1.5828   -4.3275   -7.0630 H   0  0  0  0  0  0  0  0  0  0  0  0
    3.6769   -3.2275   -7.1729 H   0  0  0  0  0  0  0  0  0  0  0  0
    1.4626   -1.6100   -8.4342 Si  0  0  0  0  0  4  0  0  0  0  0  0
    1.6826   -0.2097   -8.0749 H   0  0  0  0  0  0  0  0  0  0  0  0
    0.0252   -1.7796   -8.6857 H   0  0  0  0  0  0  0  0  0  0  0  0
    1.7336    2.2734   -5.4821 Si  0  0  0  0  0  4  0  0  0  0  0  0
    2.4927    2.9527   -4.4040 H   0  0  0  0  0  0  0  0  0  0  0  0
    2.4977    1.0855   -5.8627 H   0  0  0  0  0  0  0  0  0  0  0  0
    1.5703    3.7217   -7.1722 Si  0  0  0  0  0  4  0  0  0  0  0  0
    2.9443    3.9566   -7.6739 H   0  0  0  0  0  0  0  0  0  0  0  0
    1.0484    4.9896   -6.6853 H   0  0  0  0  0  0  0  0  0  0  0  0
    2.5140   -2.0115  -10.3755 Si  0  0  0  0  0  4  0  0  0  0  0  0
    3.5471   -3.0417  -10.2192 H   0  0  0  0  0  0  0  0  0  0  0  0
    3.2226   -0.7855  -10.8401 H   0  0  0  0  0  0  0  0  0  0  0  0
    0.3555    2.9232   -8.8392 Si  0  0  0  0  0  4  0  0  0  0  0  0
   -0.4955    1.8256   -8.4063 H   0  0  0  0  0  0  0  0  0  0  0  0
   -0.5437    4.0077   -9.3108 H   0  0  0  0  0  0  0  0  0  0  0  0
    1.1099   -2.6283  -11.9607 Si  0  0  0  0  0  4  0  0  0  0  0  0
    0.8116   -1.4926  -12.8632 H   0  0  0  0  0  0  0  0  0  0  0  0
    1.7307   -3.6817  -12.8061 H   0  0  0  0  0  0  0  0  0  0  0  0
   -0.8026   -3.4110  -11.1783 Si  0  0  0  0  0  4  0  0  0  0  0  0
   -0.6400   -4.7961  -10.7340 H   0  0  0  0  0  0  0  0  0  0  0  0
   -1.2558   -2.5718  -10.0629 H   0  0  0  0  0  0  0  0  0  0  0  0
   -1.7949   -3.3929  -12.2801 H   0  0  0  0  0  0  0  0  0  0  0  0
    1.6250    2.3175  -10.5771 Si  0  0  0  0  0  4  0  0  0  0  0  0
    1.2257    0.9706  -10.9901 H   0  0  0  0  0  0  0  0  0  0  0  0
    1.4198    3.2179  -11.7321 H   0  0  0  0  0  0  0  0  0  0  0  0
    3.0592    2.3908  -10.2395 H   0  0  0  0  0  0  0  0  0  0  0  0
  1  2  1  0
  1  5  1  0
  2  3  1  0
  2  4  1  0
  2  8  1  0
  5  6  1  0
  5  7  1  0
  5 11  1  0
  8  9  1  0
  8 10  1  0
  8 17  1  0
 11 12  1  0
 11 13  1  0
 11 14  1  0
 14 15  1  0
 14 16  1  0
 14 23  1  0
 17 18  1  0
 17 19  1  0
 17 20  1  0
 20 21  1  0
 20 22  1  0
 20 26  1  0
 23 24  1  0
 23 25  1  0
 23 29  1  0
 26 27  1  0
 26 28  1  0
 26 36  1  0
 29 30  1  0
 29 31  1  0
 29 32  1  0
 32 33  1  0
 32 34  1  0
 32 35  1  0
 36 37  1  0
 36 38  1  0
 36 39  1  0
M  CHG  1   1   1
M  RAD  1   1   2
M  END
$$$$

     RDKit          3D

 39 38  0  0  0  0  0  0  0  0999 V2000
   -0.0007   -1.8967   -4.3130 S   0  0  0  0  0  2  0  0  0  0  0  0
    0.1201   -1.0071   -6.2732 Si  0  0  0  0  0  4  0  0  0  0  0  0
   -1.1608   -0.3445   -6.5540 H   0  0  0  0  0  0  0  0  0  0  0  0
    0.3605   -2.0284   -7.2886 H   0  0  0  0  0  0  0  0  0  0  0  0
    1.2714   -3.6184   -4.2793 Si  0  0  0  0  0  4  0  0  0  0  0  0
    0.7291   -4.6214   -3.3715 H   0  0  0  0  0  0  0  0  0  0  0  0
    2.6109   -3.2525   -3.7755 H   0  0  0  0  0  0  0  0  0  0  0  0
    1.7203    0.5614   -6.2783 Si  0  0  0  0  0  4  0  0  0  0  0  0
    1.2991    1.6095   -5.3400 H   0  0  0  0  0  0  0  0  0  0  0  0
    2.9965   -0.0434   -5.8856 H   0  0  0  0  0  0  0  0  0  0  0  0
    1.4567   -4.4303   -6.3759 Si  0  0  0  0  0  4  0  0  0  0  0  0
    0.2775   -4.0689   -7.1500 H   0  0  0  0  0  0  0  0  0  0  0  0
    1.5629   -5.9047   -6.2280 H   0  0  0  0  0  0  0  0  0  0  0  0
    3.3454   -3.6502   -7.2204 Si  0  0  0  0  0  4  0  0  0  0  0  0
    4.4684   -4.3791   -6.5916 H   0  0  0  0  0  0  0  0  0  0  0  0
    3.4672   -2.2298   -6.8624 H   0  0  0  0  0  0  0  0  0  0  0  0
    1.8578    1.4435   -8.3147 Si  0  0  0  0  0  4  0  0  0  0  0  0
    0.6850    2.2886   -8.5417 H   0  0  0  0  0  0  0  0  0  0  0  0
    1.8585    0.4077   -9.3678 H   0  0  0  0  0  0  0  0  0  0  0  0
    3.7207    2.6423   -8.5661 Si  0  0  0  0  0  4  0  0  0  0  0  0
    4.0146    2.7526  -10.0084 H   0  0  0  0  0  0  0  0  0  0  0  0
    3.5044    3.9927   -8.0237 H   0  0  0  0  0  0  0  0  0  0  0  0
    3.4886   -3.9494   -9.4148 Si  0  0  0  0  0  4  0  0  0  0  0  0
    4.6841   -3.2121   -9.8886 H   0  0  0  0  0  0  0  0  0  0  0  0
    3.7128   -5.3585   -9.7222 H   0  0  0  0  0  0  0  0  0  0  0  0
    5.4490    1.6393   -7.5825 Si  0  0  0  0  0  4  0  0  0  0  0  0
    5.2711    0.1791   -7.5795 H   0  0  0  0  0  0  0  0  0  0  0  0
    6.6813    1.9827   -8.3251 H   0  0  0  0  0  0  0  0  0  0  0  0
    1.7300   -3.1714  -10.5009 Si  0  0  0  0  0  4  0  0  0  0  0  0
    1.3376   -1.8674   -9.9774 H   0  0  0  0  0  0  0  0  0  0  0  0
    2.1214   -2.9545  -11.9221 H   0  0  0  0  0  0  0  0  0  0  0  0
    0.0368   -4.6207  -10.4803 Si  0  0  0  0  0  4  0  0  0  0  0  0
    0.0110   -5.3808   -9.2123 H   0  0  0  0  0  0  0  0  0  0  0  0
    0.0910   -5.5491  -11.6133 H   0  0  0  0  0  0  0  0  0  0  0  0
   -1.2126   -3.8332  -10.5819 H   0  0  0  0  0  0  0  0  0  0  0  0
    5.6657    2.3795   -5.4778 Si  0  0  0  0  0  4  0  0  0  0  0  0
    7.0148    2.9110   -5.2389 H   0  0  0  0  0  0  0  0  0  0  0  0
    5.4102    1.3161   -4.5063 H   0  0  0  0  0  0  0  0  0  0  0  0
    4.7142    3.4699   -5.2589 H   0  0  0  0  0  0  0  0  0  0  0  0
  1  2  1  0
  1  5  1  0
  2  3  1  0
  2  4  1  0
  2  8  1  0
  5  6  1  0
  5  7  1  0
  5 11  1  0
  8  9  1  0
  8 10  1  0
  8 17  1  0
 11 12  1  0
 11 13  1  0
 11 14  1  0
 14 15  1  0
 14 16  1  0
 14 23  1  0
 17 18  1  0
 17 19  1  0
 17 20  1  0
 20 21  1  0
 20 22  1  0
 20 26  1  0
 23 24  1  0
 23 25  1  0
 23 29  1  0
 26 27  1  0
 26 28  1  0
 26 36  1  0
 29 30  1  0
 29 31  1  0
 29 32  1  0
 32 33  1  0
 32 34  1  0
 32 35  1  0
 36 37  1  0
 36 38  1  0
 36 39  1  0
M  CHG  1   1   1
M  RAD  1   1   2
M  END
$$$$

     RDKit          3D

 39 38  0  0  0  0  0  0  0  0999 V2000
   -0.0007   -1.8967   -4.3130 S   0  0  0  0  0  2  0  0  0  0  0  0
   -1.5237   -1.0468   -5.5927 Si  0  0  0  0  0  4  0  0  0  0  0  0
   -2.7545   -0.9698   -4.7579 H   0  0  0  0  0  0  0  0  0  0  0  0
   -1.7019   -1.9227   -6.7357 H   0  0  0  0  0  0  0  0  0  0  0  0
   -0.0894   -4.0251   -4.3110 Si  0  0  0  0  0  4  0  0  0  0  0  0
   -1.4869   -4.4218   -4.0223 H   0  0  0  0  0  0  0  0  0  0  0  0
    0.7474   -4.5164   -3.2096 H   0  0  0  0  0  0  0  0  0  0  0  0
   -0.9748    1.0117   -6.1855 Si  0  0  0  0  0  4  0  0  0  0  0  0
    0.4817    1.1813   -5.9073 H   0  0  0  0  0  0  0  0  0  0  0  0
   -1.6398    1.9997   -5.2880 H   0  0  0  0  0  0  0  0  0  0  0  0
    0.6142   -4.8813   -6.2426 Si  0  0  0  0  0  4  0  0  0  0  0  0
   -0.5086   -5.6082   -6.8693 H   0  0  0  0  0  0  0  0  0  0  0  0
    1.6782   -5.8735   -5.9890 H   0  0  0  0  0  0  0  0  0  0  0  0
    1.3271   -3.2976   -7.6355 Si  0  0  0  0  0  4  0  0  0  0  0  0
    1.0530   -1.9580   -7.0677 H   0  0  0  0  0  0  0  0  0  0  0  0
    2.7790   -3.4837   -7.8389 H   0  0  0  0  0  0  0  0  0  0  0  0
   -1.3014    1.4418   -8.3128 Si  0  0  0  0  0  4  0  0  0  0  0  0
   -1.3360    2.9219   -8.4931 H   0  0  0  0  0  0  0  0  0  0  0  0
   -0.0977    0.9961   -9.0722 H   0  0  0  0  0  0  0  0  0  0  0  0
   -3.0809    0.5645   -9.2044 Si  0  0  0  0  0  4  0  0  0  0  0  0
   -3.5441    1.4251  -10.3310 H   0  0  0  0  0  0  0  0  0  0  0  0
   -2.7301   -0.7359   -9.8360 H   0  0  0  0  0  0  0  0  0  0  0  0
    0.3445   -3.5179   -9.6287 Si  0  0  0  0  0  4  0  0  0  0  0  0
    1.2587   -4.1337  -10.6114 H   0  0  0  0  0  0  0  0  0  0  0  0
   -0.0042   -2.1799  -10.1440 H   0  0  0  0  0  0  0  0  0  0  0  0
   -4.7726    0.2446   -7.8438 Si  0  0  0  0  0  4  0  0  0  0  0  0
   -4.6255   -1.0317   -7.1042 H   0  0  0  0  0  0  0  0  0  0  0  0
   -6.0021    0.0732   -8.6735 H   0  0  0  0  0  0  0  0  0  0  0  0
   -1.4843   -4.7649   -9.4308 Si  0  0  0  0  0  4  0  0  0  0  0  0
   -1.1183   -6.1111   -9.0004 H   0  0  0  0  0  0  0  0  0  0  0  0
   -2.3589   -4.1824   -8.4158 H   0  0  0  0  0  0  0  0  0  0  0  0
   -2.5867   -4.8618  -11.3509 Si  0  0  0  0  0  4  0  0  0  0  0  0
   -3.8513   -5.5984  -11.1275 H   0  0  0  0  0  0  0  0  0  0  0  0
   -1.7629   -5.5322  -12.3792 H   0  0  0  0  0  0  0  0  0  0  0  0
   -2.9519   -3.5146  -11.8018 H   0  0  0  0  0  0  0  0  0  0  0  0
   -5.1347    1.9291   -6.4660 Si  0  0  0  0  0  4  0  0  0  0  0  0
   -6.1049    1.4717   -5.4310 H   0  0  0  0  0  0  0  0  0  0  0  0
   -3.9544    2.4024   -5.7781 H   0  0  0  0  0  0  0  0  0  0  0  0
   -5.7501    3.0620   -7.1666 H   0  0  0  0  0  0  0  0  0  0  0  0
  1  2  1  0
  1  5  1  0
  2  3  1  0
  2  4  1  0
  2  8  1  0
  5  6  1  0
  5  7  1  0
  5 11  1  0
  8  9  1  0
  8 10  1  0
  8 17  1  0
 11 12  1  0
 11 13  1  0
 11 14  1  0
 14 15  1  0
 14 16  1  0
 14 23  1  0
 17 18  1  0
 17 19  1  0
 17 20  1  0
 20 21  1  0
 20 22  1  0
 20 26  1  0
 23 24  1  0
 23 25  1  0
 23 29  1  0
 26 27  1  0
 26 28  1  0
 26 36  1  0
 29 30  1  0
 29 31  1  0
 29 32  1  0
 32 33  1  0
 32 34  1  0
 32 35  1  0
 36 37  1  0
 36 38  1  0
 36 39  1  0
M  CHG  1   1   1
M  RAD  1   1   2
M  END
$$$$

     RDKit          3D

 39 38  0  0  0  0  0  0  0  0999 V2000
   -0.0007   -1.8967   -4.3130 S   0  0  0  0  0  2  0  0  0  0  0  0
   -0.9200   -0.6052   -5.7849 Si  0  0  0  0  0  4  0  0  0  0  0  0
   -2.1583   -0.0817   -5.1444 H   0  0  0  0  0  0  0  0  0  0  0  0
   -1.2166   -1.3953   -6.9652 H   0  0  0  0  0  0  0  0  0  0  0  0
   -0.8240   -3.8602   -4.3828 Si  0  0  0  0  0  4  0  0  0  0  0  0
   -2.2986   -3.7376   -4.3200 H   0  0  0  0  0  0  0  0  0  0  0  0
   -0.3877   -4.5817   -3.1811 H   0  0  0  0  0  0  0  0  0  0  0  0
    0.3942    1.1164   -6.2311 Si  0  0  0  0  0  4  0  0  0  0  0  0
    1.7586    0.7759   -5.7309 H   0  0  0  0  0  0  0  0  0  0  0  0
   -0.0131    2.2983   -5.4181 H   0  0  0  0  0  0  0  0  0  0  0  0
   -0.1785   -4.9604   -6.2082 Si  0  0  0  0  0  4  0  0  0  0  0  0
   -1.3753   -5.2679   -7.0173 H   0  0  0  0  0  0  0  0  0  0  0  0
    0.4221   -6.2535   -5.8236 H   0  0  0  0  0  0  0  0  0  0  0  0
    1.2434   -3.7627   -7.4331 Si  0  0  0  0  0  4  0  0  0  0  0  0
    1.3701   -2.3964   -6.8769 H   0  0  0  0  0  0  0  0  0  0  0  0
    2.5527   -4.4481   -7.4192 H   0  0  0  0  0  0  0  0  0  0  0  0
    0.5641    1.5748   -8.3708 Si  0  0  0  0  0  4  0  0  0  0  0  0
    1.0746    2.9689   -8.5136 H   0  0  0  0  0  0  0  0  0  0  0  0
    1.6376    0.7173   -8.9510 H   0  0  0  0  0  0  0  0  0  0  0  0
   -1.2525    1.3477   -9.5453 Si  0  0  0  0  0  4  0  0  0  0  0  0
   -1.2108    2.2846  -10.7052 H   0  0  0  0  0  0  0  0  0  0  0  0
   -1.2849   -0.0102  -10.1519 H   0  0  0  0  0  0  0  0  0  0  0  0
    0.5596   -3.6817   -9.5574 Si  0  0  0  0  0  4  0  0  0  0  0  0
    1.3399   -4.6040  -10.4067 H   0  0  0  0  0  0  0  0  0  0  0  0
    0.7809   -2.3207  -10.0828 H   0  0  0  0  0  0  0  0  0  0  0  0
   -3.1350    1.6741   -8.4661 Si  0  0  0  0  0  4  0  0  0  0  0  0
   -3.5553    0.4473   -7.7479 H   0  0  0  0  0  0  0  0  0  0  0  0
   -4.2065    1.9187   -9.4768 H   0  0  0  0  0  0  0  0  0  0  0  0
   -1.5963   -4.2082   -9.6731 Si  0  0  0  0  0  4  0  0  0  0  0  0
   -1.7915   -5.5853   -9.2292 H   0  0  0  0  0  0  0  0  0  0  0  0
   -2.3564   -3.3301   -8.7867 H   0  0  0  0  0  0  0  0  0  0  0  0
   -2.3590   -3.9679  -11.7399 Si  0  0  0  0  0  4  0  0  0  0  0  0
   -3.8192   -4.2118  -11.7310 H   0  0  0  0  0  0  0  0  0  0  0  0
   -1.6745   -4.9110  -12.6496 H   0  0  0  0  0  0  0  0  0  0  0  0
   -2.1597   -2.5907  -12.2039 H   0  0  0  0  0  0  0  0  0  0  0  0
   -3.0925    3.4164   -7.1134 Si  0  0  0  0  0  4  0  0  0  0  0  0
   -4.3060    3.3539   -6.2502 H   0  0  0  0  0  0  0  0  0  0  0  0
   -1.9400    3.4679   -6.2419 H   0  0  0  0  0  0  0  0  0  0  0  0
   -3.1612    4.6730   -7.8679 H   0  0  0  0  0  0  0  0  0  0  0  0
  1  2  1  0
  1  5  1  0
  2  3  1  0
  2  4  1  0
  2  8  1  0
  5  6  1  0
  5  7  1  0
  5 11  1  0
  8  9  1  0
  8 10  1  0
  8 17  1  0
 11 12  1  0
 11 13  1  0
 11 14  1  0
 14 15  1  0
 14 16  1  0
 14 23  1  0
 17 18  1  0
 17 19  1  0
 17 20  1  0
 20 21  1  0
 20 22  1  0
 20 26  1  0
 23 24  1  0
 23 25  1  0
 23 29  1  0
 26 27  1  0
 26 28  1  0
 26 36  1  0
 29 30  1  0
 29 31  1  0
 29 32  1  0
 32 33  1  0
 32 34  1  0
 32 35  1  0
 36 37  1  0
 36 38  1  0
 36 39  1  0
M  CHG  1   1   1
M  RAD  1   1   2
M  END
$$$$

     RDKit          3D

 39 38  0  0  0  0  0  0  0  0999 V2000
   -0.0007   -1.8967   -4.3130 S   0  0  0  0  0  2  0  0  0  0  0  0
   -1.0043   -1.3267   -6.1341 Si  0  0  0  0  0  4  0  0  0  0  0  0
   -2.4313   -1.6445   -5.9881 H   0  0  0  0  0  0  0  0  0  0  0  0
   -0.4658   -2.0660   -7.2723 H   0  0  0  0  0  0  0  0  0  0  0  0
    2.0160   -2.4276   -4.7976 Si  0  0  0  0  0  4  0  0  0  0  0  0
    2.4958   -3.4533   -3.8800 H   0  0  0  0  0  0  0  0  0  0  0  0
    2.9022   -1.2559   -4.6445 H   0  0  0  0  0  0  0  0  0  0  0  0
   -0.8197    0.8881   -6.4203 Si  0  0  0  0  0  4  0  0  0  0  0  0
   -1.5281    1.5271   -5.3040 H   0  0  0  0  0  0  0  0  0  0  0  0
    0.5981    1.2586   -6.4522 H   0  0  0  0  0  0  0  0  0  0  0  0
    2.0882   -3.1463   -6.9348 Si  0  0  0  0  0  4  0  0  0  0  0  0
    0.7897   -3.6819   -7.3185 H   0  0  0  0  0  0  0  0  0  0  0  0
    3.1298   -4.2050   -6.9678 H   0  0  0  0  0  0  0  0  0  0  0  0
    2.7485   -1.4432   -8.1809 Si  0  0  0  0  0  4  0  0  0  0  0  0
    4.1965   -1.2411   -7.9572 H   0  0  0  0  0  0  0  0  0  0  0  0
    2.0452   -0.2334   -7.7313 H   0  0  0  0  0  0  0  0  0  0  0  0
   -1.8271    1.4552   -8.3196 Si  0  0  0  0  0  4  0  0  0  0  0  0
   -3.2749    1.3515   -8.1336 H   0  0  0  0  0  0  0  0  0  0  0  0
   -1.4649    0.5509   -9.4300 H   0  0  0  0  0  0  0  0  0  0  0  0
   -1.2864    3.5243   -8.9497 Si  0  0  0  0  0  4  0  0  0  0  0  0
   -1.5341    3.6514  -10.3993 H   0  0  0  0  0  0  0  0  0  0  0  0
   -2.1424    4.4865   -8.2384 H   0  0  0  0  0  0  0  0  0  0  0  0
    2.4421   -1.8014  -10.3496 Si  0  0  0  0  0  4  0  0  0  0  0  0
    2.7241   -0.5292  -11.0562 H   0  0  0  0  0  0  0  0  0  0  0  0
    3.4047   -2.7808  -10.8441 H   0  0  0  0  0  0  0  0  0  0  0  0
    0.8722    3.9286   -8.5787 Si  0  0  0  0  0  4  0  0  0  0  0  0
    1.6578    2.6885   -8.6715 H   0  0  0  0  0  0  0  0  0  0  0  0
    1.3544    4.8929   -9.5914 H   0  0  0  0  0  0  0  0  0  0  0  0
    0.3745   -2.4087  -10.8328 Si  0  0  0  0  0  4  0  0  0  0  0  0
   -0.5862   -1.5947  -10.0960 H   0  0  0  0  0  0  0  0  0  0  0  0
    0.1369   -2.1360  -12.2782 H   0  0  0  0  0  0  0  0  0  0  0  0
    0.0516   -4.5880  -10.4945 Si  0  0  0  0  0  4  0  0  0  0  0  0
    0.8546   -5.0667   -9.3490 H   0  0  0  0  0  0  0  0  0  0  0  0
    0.3639   -5.3837  -11.6853 H   0  0  0  0  0  0  0  0  0  0  0  0
   -1.3818   -4.7719  -10.1733 H   0  0  0  0  0  0  0  0  0  0  0  0
    1.1405    4.8444   -6.5504 Si  0  0  0  0  0  4  0  0  0  0  0  0
    1.8578    6.1241   -6.6370 H   0  0  0  0  0  0  0  0  0  0  0  0
    1.8850    3.9580   -5.6560 H   0  0  0  0  0  0  0  0  0  0  0  0
   -0.1777    5.1130   -5.9737 H   0  0  0  0  0  0  0  0  0  0  0  0
  1  2  1  0
  1  5  1  0
  2  3  1  0
  2  4  1  0
  2  8  1  0
  5  6  1  0
  5  7  1  0
  5 11  1  0
  8  9  1  0
  8 10  1  0
  8 17  1  0
 11 12  1  0
 11 13  1  0
 11 14  1  0
 14 15  1  0
 14 16  1  0
 14 23  1  0
 17 18  1  0
 17 19  1  0
 17 20  1  0
 20 21  1  0
 20 22  1  0
 20 26  1  0
 23 24  1  0
 23 25  1  0
 23 29  1  0
 26 27  1  0
 26 28  1  0
 26 36  1  0
 29 30  1  0
 29 31  1  0
 29 32  1  0
 32 33  1  0
 32 34  1  0
 32 35  1  0
 36 37  1  0
 36 38  1  0
 36 39  1  0
M  CHG  1   1   1
M  RAD  1   1   2
M  END
$$$$

     RDKit          3D

 39 38  0  0  0  0  0  0  0  0999 V2000
   -0.0007   -1.8967   -4.3130 S   0  0  0  0  0  2  0  0  0  0  0  0
   -0.7923   -0.5497   -5.8091 Si  0  0  0  0  0  4  0  0  0  0  0  0
   -2.0116    0.0537   -5.2034 H   0  0  0  0  0  0  0  0  0  0  0  0
   -1.1061   -1.3199   -6.9980 H   0  0  0  0  0  0  0  0  0  0  0  0
   -0.9473   -3.8027   -4.4078 Si  0  0  0  0  0  4  0  0  0  0  0  0
   -2.4121   -3.5846   -4.3866 H   0  0  0  0  0  0  0  0  0  0  0  0
   -0.5928   -4.5499   -3.1950 H   0  0  0  0  0  0  0  0  0  0  0  0
    0.6429    1.0826   -6.2164 Si  0  0  0  0  0  4  0  0  0  0  0  0
    1.9676    0.6549   -5.6783 H   0  0  0  0  0  0  0  0  0  0  0  0
    0.2903    2.2892   -5.4141 H   0  0  0  0  0  0  0  0  0  0  0  0
   -0.3233   -4.9441   -6.2152 Si  0  0  0  0  0  4  0  0  0  0  0  0
   -1.5142   -5.1741   -7.0581 H   0  0  0  0  0  0  0  0  0  0  0  0
    0.1811   -6.2732   -5.8150 H   0  0  0  0  0  0  0  0  0  0  0  0
    1.2073   -3.8424   -7.3984 Si  0  0  0  0  0  4  0  0  0  0  0  0
    1.4066   -2.4867   -6.8377 H   0  0  0  0  0  0  0  0  0  0  0  0
    2.4685   -4.6112   -7.3482 H   0  0  0  0  0  0  0  0  0  0  0  0
    0.9024    1.5272   -8.3501 Si  0  0  0  0  0  4  0  0  0  0  0  0
    1.5061    2.8850   -8.4771 H   0  0  0  0  0  0  0  0  0  0  0  0
    1.9340    0.6013   -8.9005 H   0  0  0  0  0  0  0  0  0  0  0  0
   -0.8912    1.4173   -9.5756 Si  0  0  0  0  0  4  0  0  0  0  0  0
   -0.7560    2.3484  -10.7330 H   0  0  0  0  0  0  0  0  0  0  0  0
   -0.9945    0.0638  -10.1841 H   0  0  0  0  0  0  0  0  0  0  0  0
    0.5905   -3.7192   -9.5412 Si  0  0  0  0  0  4  0  0  0  0  0  0
    1.3330   -4.6908  -10.3689 H   0  0  0  0  0  0  0  0  0  0  0  0
    0.9143   -2.3758  -10.0588 H   0  0  0  0  0  0  0  0  0  0  0  0
   -2.7783    1.8661   -8.5497 Si  0  0  0  0  0  4  0  0  0  0  0  0
   -3.2974    0.6698   -7.8448 H   0  0  0  0  0  0  0  0  0  0  0  0
   -3.8026    2.1788   -9.5900 H   0  0  0  0  0  0  0  0  0  0  0  0
   -1.5909   -4.1047   -9.7181 Si  0  0  0  0  0  4  0  0  0  0  0  0
   -1.8875   -5.4659   -9.2812 H   0  0  0  0  0  0  0  0  0  0  0  0
   -2.3172   -3.1784   -8.8528 H   0  0  0  0  0  0  0  0  0  0  0  0
   -2.2778   -3.8173  -11.8055 Si  0  0  0  0  0  4  0  0  0  0  0  0
   -3.7504   -3.9660  -11.8380 H   0  0  0  0  0  0  0  0  0  0  0  0
   -1.6305   -4.8037  -12.6963 H   0  0  0  0  0  0  0  0  0  0  0  0
   -1.9765   -2.4564  -12.2624 H   0  0  0  0  0  0  0  0  0  0  0  0
   -2.6610    3.6032   -7.1947 Si  0  0  0  0  0  4  0  0  0  0  0  0
   -3.8999    3.6204   -6.3662 H   0  0  0  0  0  0  0  0  0  0  0  0
   -1.5326    3.5807   -6.2910 H   0  0  0  0  0  0  0  0  0  0  0  0
   -2.6267    4.8609   -7.9497 H   0  0  0  0  0  0  0  0  0  0  0  0
  1  2  1  0
  1  5  1  0
  2  3  1  0
  2  4  1  0
  2  8  1  0
  5  6  1  0
  5  7  1  0
  5 11  1  0
  8  9  1  0
  8 10  1  0
  8 17  1  0
 11 12  1  0
 11 13  1  0
 11 14  1  0
 14 15  1  0
 14 16  1  0
 14 23  1  0
 17 18  1  0
 17 19  1  0
 17 20  1  0
 20 21  1  0
 20 22  1  0
 20 26  1  0
 23 24  1  0
 23 25  1  0
 23 29  1  0
 26 27  1  0
 26 28  1  0
 26 36  1  0
 29 30  1  0
 29 31  1  0
 29 32  1  0
 32 33  1  0
 32 34  1  0
 32 35  1  0
 36 37  1  0
 36 38  1  0
 36 39  1  0
M  CHG  1   1   1
M  RAD  1   1   2
M  END
$$$$

     RDKit          3D

 39 38  0  0  0  0  0  0  0  0999 V2000
   -0.0007   -1.8967   -4.3130 S   0  0  0  0  0  2  0  0  0  0  0  0
   -0.9134   -1.2644   -6.1612 Si  0  0  0  0  0  4  0  0  0  0  0  0
   -2.3615   -1.4889   -6.0558 H   0  0  0  0  0  0  0  0  0  0  0  0
   -0.3921   -2.0381   -7.2844 H   0  0  0  0  0  0  0  0  0  0  0  0
    1.9902   -2.5578   -4.7409 Si  0  0  0  0  0  4  0  0  0  0  0  0
    2.3764   -3.6115   -3.8111 H   0  0  0  0  0  0  0  0  0  0  0  0
    2.9459   -1.4459   -4.5618 H   0  0  0  0  0  0  0  0  0  0  0  0
   -0.5775    0.9334   -6.4401 Si  0  0  0  0  0  4  0  0  0  0  0  0
   -1.2741    1.6181   -5.3436 H   0  0  0  0  0  0  0  0  0  0  0  0
    0.8617    1.2112   -6.4315 H   0  0  0  0  0  0  0  0  0  0  0  0
    2.0759   -3.2816   -6.8759 Si  0  0  0  0  0  4  0  0  0  0  0  0
    0.7568   -3.7322   -7.2966 H   0  0  0  0  0  0  0  0  0  0  0  0
    3.0471   -4.4057   -6.8804 H   0  0  0  0  0  0  0  0  0  0  0  0
    2.8802   -1.6260   -8.1013 Si  0  0  0  0  0  4  0  0  0  0  0  0
    4.3315   -1.5182   -7.8367 H   0  0  0  0  0  0  0  0  0  0  0  0
    2.2445   -0.3727   -7.6706 H   0  0  0  0  0  0  0  0  0  0  0  0
   -1.4920    1.5629   -8.3665 Si  0  0  0  0  0  4  0  0  0  0  0  0
   -2.9481    1.5535   -8.2216 H   0  0  0  0  0  0  0  0  0  0  0  0
   -1.1580    0.6360   -9.4670 H   0  0  0  0  0  0  0  0  0  0  0  0
   -0.8006    3.5920   -8.9792 Si  0  0  0  0  0  4  0  0  0  0  0  0
   -0.9985    3.7336  -10.4351 H   0  0  0  0  0  0  0  0  0  0  0  0
   -1.6121    4.6084   -8.2914 H   0  0  0  0  0  0  0  0  0  0  0  0
    2.6126   -1.9656  -10.2782 Si  0  0  0  0  0  4  0  0  0  0  0  0
    2.9964   -0.7150  -10.9753 H   0  0  0  0  0  0  0  0  0  0  0  0
    3.5232   -3.0059  -10.7461 H   0  0  0  0  0  0  0  0  0  0  0  0
    1.3684    3.8558   -8.5470 Si  0  0  0  0  0  4  0  0  0  0  0  0
    2.0742    2.5672   -8.6187 H   0  0  0  0  0  0  0  0  0  0  0  0
    1.9405    4.7858   -9.5448 H   0  0  0  0  0  0  0  0  0  0  0  0
    0.5244   -2.4380  -10.8201 Si  0  0  0  0  0  4  0  0  0  0  0  0
   -0.4019   -1.5627  -10.1100 H   0  0  0  0  0  0  0  0  0  0  0  0
    0.3459   -2.1518  -12.2713 H   0  0  0  0  0  0  0  0  0  0  0  0
    0.0514   -4.5914  -10.4931 Si  0  0  0  0  0  4  0  0  0  0  0  0
    0.7890   -5.1202   -9.3257 H   0  0  0  0  0  0  0  0  0  0  0  0
    0.3449   -5.4068  -11.6752 H   0  0  0  0  0  0  0  0  0  0  0  0
   -1.3994   -4.6816  -10.2126 H   0  0  0  0  0  0  0  0  0  0  0  0
    1.6381    4.7541   -6.5111 Si  0  0  0  0  0  4  0  0  0  0  0  0
    2.4391    5.9845   -6.5763 H   0  0  0  0  0  0  0  0  0  0  0  0
    2.2980    3.8221   -5.5968 H   0  0  0  0  0  0  0  0  0  0  0  0
    0.3244    5.1082   -5.9717 H   0  0  0  0  0  0  0  0  0  0  0  0
  1  2  1  0
  1  5  1  0
  2  3  1  0
  2  4  1  0
  2  8  1  0
  5  6  1  0
  5  7  1  0
  5 11  1  0
  8  9  1  0
  8 10  1  0
  8 17  1  0
 11 12  1  0
 11 13  1  0
 11 14  1  0
 14 15  1  0
 14 16  1  0
 14 23  1  0
 17 18  1  0
 17 19  1  0
 17 20  1  0
 20 21  1  0
 20 22  1  0
 20 26  1  0
 23 24  1  0
 23 25  1  0
 23 29  1  0
 26 27  1  0
 26 28  1  0
 26 36  1  0
 29 30  1  0
 29 31  1  0
 29 32  1  0
 32 33  1  0
 32 34  1  0
 32 35  1  0
 36 37  1  0
 36 38  1  0
 36 39  1  0
M  CHG  1   1   1
M  RAD  1   1   2
M  END
$$$$

     RDKit          3D

 39 38  0  0  0  0  0  0  0  0999 V2000
   -0.0007   -1.8967   -4.3130 S   0  0  0  0  0  2  0  0  0  0  0  0
   -0.4370   -0.0191   -5.1373 Si  0  0  0  0  0  4  0  0  0  0  0  0
    0.3963    1.0137   -4.4573 H   0  0  0  0  0  0  0  0  0  0  0  0
   -1.8489    0.3737   -4.8765 H   0  0  0  0  0  0  0  0  0  0  0  0
   -0.5642   -3.5500   -5.4831 Si  0  0  0  0  0  4  0  0  0  0  0  0
   -0.4310   -4.7773   -4.6697 H   0  0  0  0  0  0  0  0  0  0  0  0
   -1.9871   -3.4514   -5.8548 H   0  0  0  0  0  0  0  0  0  0  0  0
   -0.0335    0.1281   -7.3102 Si  0  0  0  0  0  4  0  0  0  0  0  0
    0.4832    1.4873   -7.6372 H   0  0  0  0  0  0  0  0  0  0  0  0
    1.0528   -0.8029   -7.6441 H   0  0  0  0  0  0  0  0  0  0  0  0
    0.6194   -3.8193   -7.3280 Si  0  0  0  0  0  4  0  0  0  0  0  0
    0.1536   -2.8960   -8.4000 H   0  0  0  0  0  0  0  0  0  0  0  0
    0.2681   -5.1747   -7.8516 H   0  0  0  0  0  0  0  0  0  0  0  0
    2.7874   -3.7619   -7.0193 Si  0  0  0  0  0  4  0  0  0  0  0  0
    3.4484   -3.5397   -8.3372 H   0  0  0  0  0  0  0  0  0  0  0  0
    3.2472   -5.1136   -6.5875 H   0  0  0  0  0  0  0  0  0  0  0  0
   -1.8690   -0.2473   -8.4918 Si  0  0  0  0  0  4  0  0  0  0  0  0
   -2.9963   -0.4065   -7.5592 H   0  0  0  0  0  0  0  0  0  0  0  0
   -1.7660   -1.4668   -9.3019 H   0  0  0  0  0  0  0  0  0  0  0  0
   -2.3273    1.5306   -9.7963 Si  0  0  0  0  0  4  0  0  0  0  0  0
   -1.1942    1.6776  -10.7289 H   0  0  0  0  0  0  0  0  0  0  0  0
   -3.5967    1.3660  -10.4743 H   0  0  0  0  0  0  0  0  0  0  0  0
    3.4999   -2.2476   -5.6113 Si  0  0  0  0  0  4  0  0  0  0  0  0
    4.6904   -2.7873   -4.8904 H   0  0  0  0  0  0  0  0  0  0  0  0
    2.5369   -1.8904   -4.5642 H   0  0  0  0  0  0  0  0  0  0  0  0
   -2.3673    3.3263   -8.4359 Si  0  0  0  0  0  4  0  0  0  0  0  0
   -0.9683    3.5254   -7.9848 H   0  0  0  0  0  0  0  0  0  0  0  0
   -2.8852    4.5031   -9.1297 H   0  0  0  0  0  0  0  0  0  0  0  0
    4.1518   -0.3608   -6.5998 Si  0  0  0  0  0  4  0  0  0  0  0  0
    5.4933    0.0556   -6.1641 H   0  0  0  0  0  0  0  0  0  0  0  0
    3.2402    0.7654   -6.2592 H   0  0  0  0  0  0  0  0  0  0  0  0
    4.1579   -0.5459   -8.8140 Si  0  0  0  0  0  4  0  0  0  0  0  0
    5.0220    0.5183   -9.3700 H   0  0  0  0  0  0  0  0  0  0  0  0
    4.5746   -1.8628   -9.2657 H   0  0  0  0  0  0  0  0  0  0  0  0
    2.7909   -0.2783   -9.3367 H   0  0  0  0  0  0  0  0  0  0  0  0
   -3.6770    2.7996   -6.6922 Si  0  0  0  0  0  4  0  0  0  0  0  0
   -5.0713    2.9291   -7.1404 H   0  0  0  0  0  0  0  0  0  0  0  0
   -3.4368    1.3819   -6.3787 H   0  0  0  0  0  0  0  0  0  0  0  0
   -3.4067    3.6735   -5.5529 H   0  0  0  0  0  0  0  0  0  0  0  0
  1  2  1  0
  1  5  1  0
  2  3  1  0
  2  4  1  0
  2  8  1  0
  5  6  1  0
  5  7  1  0
  5 11  1  0
  8  9  1  0
  8 10  1  0
  8 17  1  0
 11 12  1  0
 11 13  1  0
 11 14  1  0
 14 15  1  0
 14 16  1  0
 14 23  1  0
 17 18  1  0
 17 19  1  0
 17 20  1  0
 20 21  1  0
 20 22  1  0
 20 26  1  0
 23 24  1  0
 23 25  1  0
 23 29  1  0
 26 27  1  0
 26 28  1  0
 26 36  1  0
 29 30  1  0
 29 31  1  0
 29 32  1  0
 32 33  1  0
 32 34  1  0
 32 35  1  0
 36 37  1  0
 36 38  1  0
 36 39  1  0
M  CHG  1   1   1
M  RAD  1   1   2
M  END
$$$$

     RDKit          3D

 39 38  0  0  0  0  0  0  0  0999 V2000
   -0.0007   -1.8967   -4.3130 S   0  0  0  0  0  2  0  0  0  0  0  0
    0.4804   -3.8739   -5.0255 Si  0  0  0  0  0  4  0  0  0  0  0  0
    1.9370   -4.0477   -4.9424 H   0  0  0  0  0  0  0  0  0  0  0  0
    0.0599   -4.0377   -6.4142 H   0  0  0  0  0  0  0  0  0  0  0  0
   -1.7731   -1.2362   -5.3159 Si  0  0  0  0  0  4  0  0  0  0  0  0
   -1.7455    0.2123   -5.4751 H   0  0  0  0  0  0  0  0  0  0  0  0
   -2.9668   -1.5640   -4.5102 H   0  0  0  0  0  0  0  0  0  0  0  0
   -0.4706   -5.3969   -3.6850 Si  0  0  0  0  0  4  0  0  0  0  0  0
    0.1385   -5.2426   -2.3578 H   0  0  0  0  0  0  0  0  0  0  0  0
   -1.9196   -5.1784   -3.6505 H   0  0  0  0  0  0  0  0  0  0  0  0
   -1.9110   -2.2743   -7.3141 Si  0  0  0  0  0  4  0  0  0  0  0  0
   -0.5785   -2.6437   -7.7703 H   0  0  0  0  0  0  0  0  0  0  0  0
   -2.5336   -1.2899   -8.2362 H   0  0  0  0  0  0  0  0  0  0  0  0
   -3.2740   -3.9979   -7.0687 Si  0  0  0  0  0  4  0  0  0  0  0  0
   -4.6581   -3.4836   -6.9809 H   0  0  0  0  0  0  0  0  0  0  0  0
   -2.9565   -4.6694   -5.8004 H   0  0  0  0  0  0  0  0  0  0  0  0
    0.0037   -7.4288   -4.4532 Si  0  0  0  0  0  4  0  0  0  0  0  0
    1.4141   -7.7149   -4.1880 H   0  0  0  0  0  0  0  0  0  0  0  0
   -0.1936   -7.5286   -5.9136 H   0  0  0  0  0  0  0  0  0  0  0  0
   -1.2805   -8.9854   -3.5053 Si  0  0  0  0  0  4  0  0  0  0  0  0
   -1.3023  -10.1718   -4.3832 H   0  0  0  0  0  0  0  0  0  0  0  0
   -0.7002   -9.3682   -2.2086 H   0  0  0  0  0  0  0  0  0  0  0  0
   -3.1839   -5.4093   -8.7791 Si  0  0  0  0  0  4  0  0  0  0  0  0
   -3.9727   -6.6088   -8.4099 H   0  0  0  0  0  0  0  0  0  0  0  0
   -3.8262   -4.8270   -9.9532 H   0  0  0  0  0  0  0  0  0  0  0  0
   -3.3725   -8.2565   -3.2753 Si  0  0  0  0  0  4  0  0  0  0  0  0
   -3.7050   -7.2865   -4.3299 H   0  0  0  0  0  0  0  0  0  0  0  0
   -4.2898   -9.4134   -3.3647 H   0  0  0  0  0  0  0  0  0  0  0  0
   -1.1252   -6.0605   -9.2434 Si  0  0  0  0  0  4  0  0  0  0  0  0
   -0.3944   -6.3678   -8.0187 H   0  0  0  0  0  0  0  0  0  0  0  0
   -1.2043   -7.3315  -10.0170 H   0  0  0  0  0  0  0  0  0  0  0  0
   -0.0496   -4.5689  -10.5029 Si  0  0  0  0  0  4  0  0  0  0  0  0
   -0.4722   -3.1930  -10.1644 H   0  0  0  0  0  0  0  0  0  0  0  0
   -0.2483   -4.8100  -11.9349 H   0  0  0  0  0  0  0  0  0  0  0  0
    1.3937   -4.7046  -10.2027 H   0  0  0  0  0  0  0  0  0  0  0  0
   -3.6333   -7.3049   -1.2625 Si  0  0  0  0  0  4  0  0  0  0  0  0
   -4.7404   -7.9259   -0.5219 H   0  0  0  0  0  0  0  0  0  0  0  0
   -3.9020   -5.8716   -1.3776 H   0  0  0  0  0  0  0  0  0  0  0  0
   -2.4110   -7.5041   -0.4824 H   0  0  0  0  0  0  0  0  0  0  0  0
  1  2  1  0
  1  5  1  0
  2  3  1  0
  2  4  1  0
  2  8  1  0
  5  6  1  0
  5  7  1  0
  5 11  1  0
  8  9  1  0
  8 10  1  0
  8 17  1  0
 11 12  1  0
 11 13  1  0
 11 14  1  0
 14 15  1  0
 14 16  1  0
 14 23  1  0
 17 18  1  0
 17 19  1  0
 17 20  1  0
 20 21  1  0
 20 22  1  0
 20 26  1  0
 23 24  1  0
 23 25  1  0
 23 29  1  0
 26 27  1  0
 26 28  1  0
 26 36  1  0
 29 30  1  0
 29 31  1  0
 29 32  1  0
 32 33  1  0
 32 34  1  0
 32 35  1  0
 36 37  1  0
 36 38  1  0
 36 39  1  0
M  CHG  1   1   1
M  RAD  1   1   2
M  END
$$$$

     RDKit          3D

 39 38  0  0  0  0  0  0  0  0999 V2000
   -0.0007   -1.8967   -4.3130 S   0  0  0  0  0  2  0  0  0  0  0  0
    1.4147   -3.5199   -4.5165 Si  0  0  0  0  0  4  0  0  0  0  0  0
    2.6625   -3.0522   -3.8518 H   0  0  0  0  0  0  0  0  0  0  0  0
    1.6198   -3.7735   -5.9303 H   0  0  0  0  0  0  0  0  0  0  0  0
    0.2432   -0.4569   -5.8640 Si  0  0  0  0  0  4  0  0  0  0  0  0
    1.6744   -0.0788   -5.9126 H   0  0  0  0  0  0  0  0  0  0  0  0
   -0.5200    0.7424   -5.4983 H   0  0  0  0  0  0  0  0  0  0  0  0
    0.6984   -5.3103   -3.4341 Si  0  0  0  0  0  4  0  0  0  0  0  0
   -0.7570   -5.1158   -3.1666 H   0  0  0  0  0  0  0  0  0  0  0  0
    1.3178   -5.3738   -2.0791 H   0  0  0  0  0  0  0  0  0  0  0  0
   -0.4572   -1.2356   -7.8292 Si  0  0  0  0  0  4  0  0  0  0  0  0
    0.6951   -1.2821   -8.7521 H   0  0  0  0  0  0  0  0  0  0  0  0
   -1.4374   -0.2991   -8.4150 H   0  0  0  0  0  0  0  0  0  0  0  0
   -1.3278   -3.2763   -7.6446 Si  0  0  0  0  0  4  0  0  0  0  0  0
   -1.1343   -3.7909   -6.2699 H   0  0  0  0  0  0  0  0  0  0  0  0
   -2.7681   -3.1926   -7.9654 H   0  0  0  0  0  0  0  0  0  0  0  0
    0.9248   -7.1805   -4.5603 Si  0  0  0  0  0  4  0  0  0  0  0  0
    0.8455   -8.3195   -3.6007 H   0  0  0  0  0  0  0  0  0  0  0  0
   -0.2667   -7.3449   -5.4420 H   0  0  0  0  0  0  0  0  0  0  0  0
    2.7343   -7.3664   -5.7530 Si  0  0  0  0  0  4  0  0  0  0  0  0
    3.0973   -8.8076   -5.8778 H   0  0  0  0  0  0  0  0  0  0  0  0
    2.4594   -6.9195   -7.1449 H   0  0  0  0  0  0  0  0  0  0  0  0
   -0.3957   -4.6549   -9.1338 Si  0  0  0  0  0  4  0  0  0  0  0  0
   -1.2934   -4.8881  -10.2829 H   0  0  0  0  0  0  0  0  0  0  0  0
   -0.1623   -5.9652   -8.4965 H   0  0  0  0  0  0  0  0  0  0  0  0
    4.4873   -6.2787   -5.0052 Si  0  0  0  0  0  4  0  0  0  0  0  0
    4.4574   -4.8612   -5.4379 H   0  0  0  0  0  0  0  0  0  0  0  0
    5.6990   -6.8583   -5.6573 H   0  0  0  0  0  0  0  0  0  0  0  0
    1.5245   -3.7975   -9.8520 Si  0  0  0  0  0  4  0  0  0  0  0  0
    1.2716   -2.5424  -10.5537 H   0  0  0  0  0  0  0  0  0  0  0  0
    2.3862   -3.5151   -8.7064 H   0  0  0  0  0  0  0  0  0  0  0  0
    2.5693   -5.2152  -11.1973 Si  0  0  0  0  0  4  0  0  0  0  0  0
    3.8908   -4.6443  -11.5431 H   0  0  0  0  0  0  0  0  0  0  0  0
    1.7644   -5.4513  -12.4146 H   0  0  0  0  0  0  0  0  0  0  0  0
    2.8207   -6.4858  -10.5089 H   0  0  0  0  0  0  0  0  0  0  0  0
    4.7692   -6.4419   -2.8232 Si  0  0  0  0  0  4  0  0  0  0  0  0
    5.8027   -5.4461   -2.4207 H   0  0  0  0  0  0  0  0  0  0  0  0
    3.5801   -6.1744   -2.0456 H   0  0  0  0  0  0  0  0  0  0  0  0
    5.2776   -7.7678   -2.4538 H   0  0  0  0  0  0  0  0  0  0  0  0
  1  2  1  0
  1  5  1  0
  2  3  1  0
  2  4  1  0
  2  8  1  0
  5  6  1  0
  5  7  1  0
  5 11  1  0
  8  9  1  0
  8 10  1  0
  8 17  1  0
 11 12  1  0
 11 13  1  0
 11 14  1  0
 14 15  1  0
 14 16  1  0
 14 23  1  0
 17 18  1  0
 17 19  1  0
 17 20  1  0
 20 21  1  0
 20 22  1  0
 20 26  1  0
 23 24  1  0
 23 25  1  0
 23 29  1  0
 26 27  1  0
 26 28  1  0
 26 36  1  0
 29 30  1  0
 29 31  1  0
 29 32  1  0
 32 33  1  0
 32 34  1  0
 32 35  1  0
 36 37  1  0
 36 38  1  0
 36 39  1  0
M  CHG  1   1   1
M  RAD  1   1   2
M  END
$$$$

     RDKit          3D

 39 38  0  0  0  0  0  0  0  0999 V2000
   -0.0007   -1.8967   -4.3130 S   0  0  0  0  0  2  0  0  0  0  0  0
    2.0927   -1.7942   -4.3648 Si  0  0  0  0  0  4  0  0  0  0  0  0
    2.6317   -2.2313   -3.0450 H   0  0  0  0  0  0  0  0  0  0  0  0
    2.5635   -0.3933   -4.5428 H   0  0  0  0  0  0  0  0  0  0  0  0
   -0.9503   -1.9293   -6.1884 Si  0  0  0  0  0  4  0  0  0  0  0  0
   -2.4034   -1.7427   -5.9903 H   0  0  0  0  0  0  0  0  0  0  0  0
   -0.4948   -0.7944   -7.0113 H   0  0  0  0  0  0  0  0  0  0  0  0
    3.0204   -3.0732   -5.9171 Si  0  0  0  0  0  4  0  0  0  0  0  0
    4.3010   -3.6392   -5.4062 H   0  0  0  0  0  0  0  0  0  0  0  0
    2.1410   -4.2259   -6.1544 H   0  0  0  0  0  0  0  0  0  0  0  0
   -0.6495   -3.7888   -7.3412 Si  0  0  0  0  0  4  0  0  0  0  0  0
    0.6815   -3.7924   -8.0099 H   0  0  0  0  0  0  0  0  0  0  0  0
   -1.6168   -3.7318   -8.4795 H   0  0  0  0  0  0  0  0  0  0  0  0
   -1.0536   -5.6208   -6.2101 Si  0  0  0  0  0  4  0  0  0  0  0  0
   -0.4347   -6.7697   -6.9313 H   0  0  0  0  0  0  0  0  0  0  0  0
   -2.5194   -5.8949   -6.2472 H   0  0  0  0  0  0  0  0  0  0  0  0
    3.4293   -1.9206   -7.7638 Si  0  0  0  0  0  4  0  0  0  0  0  0
    3.0913   -0.5101   -7.5144 H   0  0  0  0  0  0  0  0  0  0  0  0
    2.6280   -2.3921   -8.8994 H   0  0  0  0  0  0  0  0  0  0  0  0
    5.6250   -2.0039   -8.2584 Si  0  0  0  0  0  4  0  0  0  0  0  0
    5.9511   -3.4200   -8.5107 H   0  0  0  0  0  0  0  0  0  0  0  0
    5.9391   -1.1452   -9.3818 H   0  0  0  0  0  0  0  0  0  0  0  0
   -0.3468   -5.6267   -4.1405 Si  0  0  0  0  0  4  0  0  0  0  0  0
   -1.3037   -6.4167   -3.3106 H   0  0  0  0  0  0  0  0  0  0  0  0
   -0.2874   -4.3015   -3.5147 H   0  0  0  0  0  0  0  0  0  0  0  0
    6.7217   -1.3400   -6.4054 Si  0  0  0  0  0  4  0  0  0  0  0  0
    6.5084   -2.4109   -5.4015 H   0  0  0  0  0  0  0  0  0  0  0  0
    8.1413   -1.1291   -6.6789 H   0  0  0  0  0  0  0  0  0  0  0  0
    1.6517   -6.5792   -3.8933 Si  0  0  0  0  0  4  0  0  0  0  0  0
    1.6503   -7.5981   -2.8329 H   0  0  0  0  0  0  0  0  0  0  0  0
    2.6783   -5.5761   -3.4992 H   0  0  0  0  0  0  0  0  0  0  0  0
    2.3560   -7.5254   -5.7763 Si  0  0  0  0  0  4  0  0  0  0  0  0
    3.4060   -8.5117   -5.4399 H   0  0  0  0  0  0  0  0  0  0  0  0
    1.2767   -8.1326   -6.5368 H   0  0  0  0  0  0  0  0  0  0  0  0
    3.0154   -6.4999   -6.6289 H   0  0  0  0  0  0  0  0  0  0  0  0
    5.7591    0.5674   -5.7212 Si  0  0  0  0  0  4  0  0  0  0  0  0
    6.2683    1.6451   -6.5821 H   0  0  0  0  0  0  0  0  0  0  0  0
    4.3141    0.4404   -5.9693 H   0  0  0  0  0  0  0  0  0  0  0  0
    6.0600    0.8297   -4.3157 H   0  0  0  0  0  0  0  0  0  0  0  0
  1  2  1  0
  1  5  1  0
  2  3  1  0
  2  4  1  0
  2  8  1  0
  5  6  1  0
  5  7  1  0
  5 11  1  0
  8  9  1  0
  8 10  1  0
  8 17  1  0
 11 12  1  0
 11 13  1  0
 11 14  1  0
 14 15  1  0
 14 16  1  0
 14 23  1  0
 17 18  1  0
 17 19  1  0
 17 20  1  0
 20 21  1  0
 20 22  1  0
 20 26  1  0
 23 24  1  0
 23 25  1  0
 23 29  1  0
 26 27  1  0
 26 28  1  0
 26 36  1  0
 29 30  1  0
 29 31  1  0
 29 32  1  0
 32 33  1  0
 32 34  1  0
 32 35  1  0
 36 37  1  0
 36 38  1  0
 36 39  1  0
M  CHG  1   1   1
M  RAD  1   1   2
M  END
$$$$
