
     RDKit          3D

 39 38  0  0  0  0  0  0  0  0999 V2000
   -1.3483   -0.1864    1.6080 S   0  0  0  0  0  2  0  0  0  0  0  0
   -0.3348    1.4569    2.5468 Si  0  0  0  0  0  4  0  0  0  0  0  0
    0.0161    1.1665    3.9371 H   0  0  0  0  0  0  0  0  0  0  0  0
    0.9358    1.7661    1.8444 H   0  0  0  0  0  0  0  0  0  0  0  0
   -1.8134   -1.6175    3.1693 Si  0  0  0  0  0  4  0  0  0  0  0  0
   -0.5706   -1.7345    3.9755 H   0  0  0  0  0  0  0  0  0  0  0  0
   -2.1560   -2.8878    2.5215 H   0  0  0  0  0  0  0  0  0  0  0  0
   -1.7104    3.2104    2.5398 Si  0  0  0  0  0  4  0  0  0  0  0  0
   -0.9779    4.3558    2.0047 H   0  0  0  0  0  0  0  0  0  0  0  0
   -2.9287    2.9436    1.7415 H   0  0  0  0  0  0  0  0  0  0  0  0
   -3.5331   -0.9339    4.3777 Si  0  0  0  0  0  4  0  0  0  0  0  0
   -4.0802    0.2851    3.7603 H   0  0  0  0  0  0  0  0  0  0  0  0
   -4.6229   -1.9204    4.4085 H   0  0  0  0  0  0  0  0  0  0  0  0
   -2.9510   -0.4318    6.4648 Si  0  0  0  0  0  4  0  0  0  0  0  0
   -4.1515    0.0744    7.1572 H   0  0  0  0  0  0  0  0  0  0  0  0
   -1.9301    0.5966    6.5151 H   0  0  0  0  0  0  0  0  0  0  0  0
   -2.4035    3.6791    4.6222 Si  0  0  0  0  0  4  0  0  0  0  0  0
   -2.9550    5.0495    4.6200 H   0  0  0  0  0  0  0  0  0  0  0  0
   -3.4316    2.7241    5.0334 H   0  0  0  0  0  0  0  0  0  0  0  0
   -0.6940    3.6228    6.0574 Si  0  0  0  0  0  4  0  0  0  0  0  0
   -0.1906    2.2314    6.1324 H   0  0  0  0  0  0  0  0  0  0  0  0
    0.3528    4.5231    5.5576 H   0  0  0  0  0  0  0  0  0  0  0  0
   -2.2439   -2.2252    7.5769 Si  0  0  0  0  0  4  0  0  0  0  0  0
   -3.2106   -3.3140    7.5593 H   0  0  0  0  0  0  0  0  0  0  0  0
   -2.0687   -1.8197    8.9942 H   0  0  0  0  0  0  0  0  0  0  0  0
   -1.4431    4.2665    8.0549 Si  0  0  0  0  0  4  0  0  0  0  0  0
   -2.8905    4.5318    8.0280 H   0  0  0  0  0  0  0  0  0  0  0  0
   -0.7938    5.5387    8.4409 H   0  0  0  0  0  0  0  0  0  0  0  0
   -0.2678   -2.9297    6.8443 Si  0  0  0  0  0  4  0  0  0  0  0  0
   -0.3293   -3.5433    5.5352 H   0  0  0  0  0  0  0  0  0  0  0  0
    0.2142   -3.9606    7.7956 H   0  0  0  0  0  0  0  0  0  0  0  0
    1.1552   -1.2235    6.9435 Si  0  0  0  0  0  4  0  0  0  0  0  0
    0.8708   -0.4882    8.2051 H   0  0  0  0  0  0  0  0  0  0  0  0
    0.9236   -0.2529    5.8539 H   0  0  0  0  0  0  0  0  0  0  0  0
    2.5480   -1.6563    7.0112 H   0  0  0  0  0  0  0  0  0  0  0  0
   -0.9988    2.7180    9.6144 Si  0  0  0  0  0  4  0  0  0  0  0  0
   -2.2434    2.0681   10.0305 H   0  0  0  0  0  0  0  0  0  0  0  0
   -0.3406    3.3395   10.7780 H   0  0  0  0  0  0  0  0  0  0  0  0
   -0.0570    1.7561    9.0177 H   0  0  0  0  0  0  0  0  0  0  0  0
  1  2  1  0
  1  5  1  0
  2  3  1  0
  2  4  1  0
  2  8  1  0
  5  6  1  0
  5  7  1  0
  5 11  1  0
  8  9  1  0
  8 10  1  0
  8 17  1  0
 11 12  1  0
 11 13  1  0
 11 14  1  0
 14 15  1  0
 14 16  1  0
 14 23  1  0
 17 18  1  0
 17 19  1  0
 17 20  1  0
 20 21  1  0
 20 22  1  0
 20 26  1  0
 23 24  1  0
 23 25  1  0
 23 29  1  0
 26 27  1  0
 26 28  1  0
 26 36  1  0
 29 30  1  0
 29 31  1  0
 29 32  1  0
 32 33  1  0
 32 34  1  0
 32 35  1  0
 36 37  1  0
 36 38  1  0
 36 39  1  0
M  CHG  1   1   1
M  RAD  1   1   2
M  END
$$$$
