
     RDKit          3D

 39 38  0  0  0  0  0  0  0  0999 V2000
    0.1162   -0.2011   -3.1323 S   0  0  0  0  0  2  0  0  0  0  0  0
   -1.5923    0.2741   -4.2061 Si  0  0  0  0  0  4  0  0  0  0  0  0
   -2.7794    0.2145   -3.3030 H   0  0  0  0  0  0  0  0  0  0  0  0
   -1.8523   -0.7672   -5.2408 H   0  0  0  0  0  0  0  0  0  0  0  0
    1.8992    0.7566   -3.6178 Si  0  0  0  0  0  4  0  0  0  0  0  0
    3.0351   -0.0844   -3.1359 H   0  0  0  0  0  0  0  0  0  0  0  0
    2.0275    2.0334   -2.8578 H   0  0  0  0  0  0  0  0  0  0  0  0
   -1.6015    2.2494   -5.1814 Si  0  0  0  0  0  4  0  0  0  0  0  0
   -1.4325    3.3231   -4.1978 H   0  0  0  0  0  0  0  0  0  0  0  0
   -0.5637    2.2744   -6.2216 H   0  0  0  0  0  0  0  0  0  0  0  0
    2.2251    1.1856   -5.7467 Si  0  0  0  0  0  4  0  0  0  0  0  0
    3.6901    1.1571   -6.0291 H   0  0  0  0  0  0  0  0  0  0  0  0
    1.8147    2.5718   -6.1002 H   0  0  0  0  0  0  0  0  0  0  0  0
    1.2884   -0.3146   -7.0922 Si  0  0  0  0  0  4  0  0  0  0  0  0
   -0.1388   -0.4554   -6.8921 H   0  0  0  0  0  0  0  0  0  0  0  0
    1.4892    0.1622   -8.4879 H   0  0  0  0  0  0  0  0  0  0  0  0
   -3.5593    2.5582   -6.2296 Si  0  0  0  0  0  4  0  0  0  0  0  0
   -3.7670    3.9997   -6.4222 H   0  0  0  0  0  0  0  0  0  0  0  0
   -3.5326    1.9565   -7.5838 H   0  0  0  0  0  0  0  0  0  0  0  0
   -5.2472    1.6936   -5.1077 Si  0  0  0  0  0  4  0  0  0  0  0  0
   -5.0207    1.5973   -3.6744 H   0  0  0  0  0  0  0  0  0  0  0  0
   -6.4605    2.5398   -5.2927 H   0  0  0  0  0  0  0  0  0  0  0  0
    2.3632   -2.2528   -6.8788 Si  0  0  0  0  0  4  0  0  0  0  0  0
    2.3030   -2.9393   -8.1817 H   0  0  0  0  0  0  0  0  0  0  0  0
    1.7956   -3.0813   -5.8157 H   0  0  0  0  0  0  0  0  0  0  0  0
   -5.7634   -0.3166   -5.9792 Si  0  0  0  0  0  4  0  0  0  0  0  0
   -5.2300   -0.3894   -7.3523 H   0  0  0  0  0  0  0  0  0  0  0  0
   -7.2119   -0.4986   -6.0699 H   0  0  0  0  0  0  0  0  0  0  0  0
    4.5310   -1.8646   -6.4368 Si  0  0  0  0  0  4  0  0  0  0  0  0
    4.6237   -1.3755   -5.0502 H   0  0  0  0  0  0  0  0  0  0  0  0
    5.3151   -3.0993   -6.6017 H   0  0  0  0  0  0  0  0  0  0  0  0
    5.2434   -0.2937   -7.8673 Si  0  0  0  0  0  4  0  0  0  0  0  0
    6.1059    0.6276   -7.0998 H   0  0  0  0  0  0  0  0  0  0  0  0
    5.9759   -0.8995   -8.9729 H   0  0  0  0  0  0  0  0  0  0  0  0
    4.1099    0.4968   -8.3592 H   0  0  0  0  0  0  0  0  0  0  0  0
   -4.9248   -1.8901   -4.6662 Si  0  0  0  0  0  4  0  0  0  0  0  0
   -4.6337   -1.3244   -3.3413 H   0  0  0  0  0  0  0  0  0  0  0  0
   -5.8222   -3.0434   -4.5444 H   0  0  0  0  0  0  0  0  0  0  0  0
   -3.6568   -2.3641   -5.2725 H   0  0  0  0  0  0  0  0  0  0  0  0
  1  2  1  0
  1  5  1  0
  2  3  1  0
  2  4  1  0
  2  8  1  0
  5  6  1  0
  5  7  1  0
  5 11  1  0
  8  9  1  0
  8 10  1  0
  8 17  1  0
 11 12  1  0
 11 13  1  0
 11 14  1  0
 14 15  1  0
 14 16  1  0
 14 23  1  0
 17 18  1  0
 17 19  1  0
 17 20  1  0
 20 21  1  0
 20 22  1  0
 20 26  1  0
 23 24  1  0
 23 25  1  0
 23 29  1  0
 26 27  1  0
 26 28  1  0
 26 36  1  0
 29 30  1  0
 29 31  1  0
 29 32  1  0
 32 33  1  0
 32 34  1  0
 32 35  1  0
 36 37  1  0
 36 38  1  0
 36 39  1  0
M  CHG  1   1   1
M  RAD  1   1   2
M  END
$$$$
