
     RDKit          3D

 39 38  0  0  0  0  0  0  0  0999 V2000
    0.2398   -0.2356    2.6426 S   0  0  0  0  0  2  0  0  0  0  0  0
   -0.1056   -1.9538    3.8640 Si  0  0  0  0  0  4  0  0  0  0  0  0
   -0.6103   -1.4945    5.1672 H   0  0  0  0  0  0  0  0  0  0  0  0
   -1.1051   -2.8516    3.2573 H   0  0  0  0  0  0  0  0  0  0  0  0
   -1.0038    1.4081    3.2707 Si  0  0  0  0  0  4  0  0  0  0  0  0
   -1.5482    2.1097    2.1010 H   0  0  0  0  0  0  0  0  0  0  0  0
   -2.1286    0.9261    4.0692 H   0  0  0  0  0  0  0  0  0  0  0  0
    1.7884   -3.1006    4.1914 Si  0  0  0  0  0  4  0  0  0  0  0  0
    1.8458   -4.1923    3.2117 H   0  0  0  0  0  0  0  0  0  0  0  0
    2.9499   -2.2310    3.9280 H   0  0  0  0  0  0  0  0  0  0  0  0
    0.1990    2.8615    4.4783 Si  0  0  0  0  0  4  0  0  0  0  0  0
    1.1152    2.1599    5.3772 H   0  0  0  0  0  0  0  0  0  0  0  0
    1.0147    3.6424    3.5238 H   0  0  0  0  0  0  0  0  0  0  0  0
   -1.1114    4.1697    5.7120 Si  0  0  0  0  0  4  0  0  0  0  0  0
   -2.4261    4.3198    5.0915 H   0  0  0  0  0  0  0  0  0  0  0  0
   -0.5229    5.5277    5.8209 H   0  0  0  0  0  0  0  0  0  0  0  0
    1.8833   -3.9212    6.2626 Si  0  0  0  0  0  4  0  0  0  0  0  0
    3.2443   -3.8341    6.7743 H   0  0  0  0  0  0  0  0  0  0  0  0
    1.4498   -5.3266    6.2502 H   0  0  0  0  0  0  0  0  0  0  0  0
    0.5567   -2.6855    7.5896 Si  0  0  0  0  0  4  0  0  0  0  0  0
    0.6887   -3.0822    8.9900 H   0  0  0  0  0  0  0  0  0  0  0  0
   -0.8403   -3.0100    7.1809 H   0  0  0  0  0  0  0  0  0  0  0  0
   -1.3710    3.3880    7.7737 Si  0  0  0  0  0  4  0  0  0  0  0  0
   -0.1014    2.8288    8.2550 H   0  0  0  0  0  0  0  0  0  0  0  0
   -1.7153    4.5153    8.6729 H   0  0  0  0  0  0  0  0  0  0  0  0
    0.9895   -0.5446    7.2672 Si  0  0  0  0  0  4  0  0  0  0  0  0
    1.6466   -0.3617    5.9591 H   0  0  0  0  0  0  0  0  0  0  0  0
   -0.2616    0.1992    7.2333 H   0  0  0  0  0  0  0  0  0  0  0  0
   -3.0140    1.8963    7.9038 Si  0  0  0  0  0  4  0  0  0  0  0  0
   -2.8422    0.9234    6.7960 H   0  0  0  0  0  0  0  0  0  0  0  0
   -4.3205    2.5244    7.8912 H   0  0  0  0  0  0  0  0  0  0  0  0
   -2.8100    0.7453    9.8219 Si  0  0  0  0  0  4  0  0  0  0  0  0
   -1.7291   -0.2291    9.6743 H   0  0  0  0  0  0  0  0  0  0  0  0
   -2.4386    1.6552   10.9176 H   0  0  0  0  0  0  0  0  0  0  0  0
   -4.0410    0.0089   10.1171 H   0  0  0  0  0  0  0  0  0  0  0  0
    2.3159    0.3054    8.8307 Si  0  0  0  0  0  4  0  0  0  0  0  0
    2.6776    1.6822    8.4051 H   0  0  0  0  0  0  0  0  0  0  0  0
    1.6613    0.4249   10.1306 H   0  0  0  0  0  0  0  0  0  0  0  0
    3.5777   -0.4399    8.9192 H   0  0  0  0  0  0  0  0  0  0  0  0
  1  2  1  0
  1  5  1  0
  2  3  1  0
  2  4  1  0
  2  8  1  0
  5  6  1  0
  5  7  1  0
  5 11  1  0
  8  9  1  0
  8 10  1  0
  8 17  1  0
 11 12  1  0
 11 13  1  0
 11 14  1  0
 14 15  1  0
 14 16  1  0
 14 23  1  0
 17 18  1  0
 17 19  1  0
 17 20  1  0
 20 21  1  0
 20 22  1  0
 20 26  1  0
 23 24  1  0
 23 25  1  0
 23 29  1  0
 26 27  1  0
 26 28  1  0
 26 36  1  0
 29 30  1  0
 29 31  1  0
 29 32  1  0
 32 33  1  0
 32 34  1  0
 32 35  1  0
 36 37  1  0
 36 38  1  0
 36 39  1  0
M  CHG  1   1   1
M  RAD  1   1   2
M  END
$$$$

     RDKit          3D

 39 38  0  0  0  0  0  0  0  0999 V2000
    0.2398   -0.2356    2.6426 S   0  0  0  0  0  2  0  0  0  0  0  0
    1.9996    0.8322    3.1470 Si  0  0  0  0  0  4  0  0  0  0  0  0
    1.7242    2.1926    3.6281 H   0  0  0  0  0  0  0  0  0  0  0  0
    2.8235    0.9677    1.9345 H   0  0  0  0  0  0  0  0  0  0  0  0
   -1.0991   -0.4622    4.2693 Si  0  0  0  0  0  4  0  0  0  0  0  0
   -2.2950   -1.1735    3.7959 H   0  0  0  0  0  0  0  0  0  0  0  0
   -0.5168   -1.2555    5.3723 H   0  0  0  0  0  0  0  0  0  0  0  0
    3.2192   -0.2023    4.6922 Si  0  0  0  0  0  4  0  0  0  0  0  0
    4.4133   -0.8389    4.0673 H   0  0  0  0  0  0  0  0  0  0  0  0
    2.4851   -1.2693    5.3617 H   0  0  0  0  0  0  0  0  0  0  0  0
   -1.7806    1.5075    5.0855 Si  0  0  0  0  0  4  0  0  0  0  0  0
   -0.7851    2.5462    4.8681 H   0  0  0  0  0  0  0  0  0  0  0  0
   -3.0223    1.9521    4.3920 H   0  0  0  0  0  0  0  0  0  0  0  0
   -2.2715    1.2353    7.2281 Si  0  0  0  0  0  4  0  0  0  0  0  0
   -3.6509    0.8243    7.4567 H   0  0  0  0  0  0  0  0  0  0  0  0
   -1.4082    0.1451    7.7516 H   0  0  0  0  0  0  0  0  0  0  0  0
    4.0363    1.2712    6.1907 Si  0  0  0  0  0  4  0  0  0  0  0  0
    5.2182    1.9583    5.6560 H   0  0  0  0  0  0  0  0  0  0  0  0
    4.4536    0.5007    7.3870 H   0  0  0  0  0  0  0  0  0  0  0  0
    2.4829    2.7164    6.8224 Si  0  0  0  0  0  4  0  0  0  0  0  0
    1.1980    2.2919    6.2697 H   0  0  0  0  0  0  0  0  0  0  0  0
    2.3198    2.7394    8.3007 H   0  0  0  0  0  0  0  0  0  0  0  0
   -1.8075    3.0576    8.4296 Si  0  0  0  0  0  4  0  0  0  0  0  0
   -0.3955    3.3790    8.4008 H   0  0  0  0  0  0  0  0  0  0  0  0
   -2.1653    2.7527    9.8335 H   0  0  0  0  0  0  0  0  0  0  0  0
    2.9166    4.7812    6.0528 Si  0  0  0  0  0  4  0  0  0  0  0  0
    4.2766    4.7520    5.4800 H   0  0  0  0  0  0  0  0  0  0  0  0
    2.8742    5.7133    7.1747 H   0  0  0  0  0  0  0  0  0  0  0  0
   -3.0392    4.7901    7.7866 Si  0  0  0  0  0  4  0  0  0  0  0  0
   -2.7167    5.1525    6.4015 H   0  0  0  0  0  0  0  0  0  0  0  0
   -2.7314    5.9197    8.6722 H   0  0  0  0  0  0  0  0  0  0  0  0
   -5.2131    4.3261    8.0356 Si  0  0  0  0  0  4  0  0  0  0  0  0
   -5.4354    3.0703    8.7317 H   0  0  0  0  0  0  0  0  0  0  0  0
   -5.9077    5.4217    8.7558 H   0  0  0  0  0  0  0  0  0  0  0  0
   -5.8176    4.2671    6.6961 H   0  0  0  0  0  0  0  0  0  0  0  0
    1.4135    5.4106    4.5415 Si  0  0  0  0  0  4  0  0  0  0  0  0
    0.4362    6.3772    5.1138 H   0  0  0  0  0  0  0  0  0  0  0  0
    2.1475    6.0772    3.4388 H   0  0  0  0  0  0  0  0  0  0  0  0
    0.6307    4.2926    4.0209 H   0  0  0  0  0  0  0  0  0  0  0  0
  1  2  1  0
  1  5  1  0
  2  3  1  0
  2  4  1  0
  2  8  1  0
  5  6  1  0
  5  7  1  0
  5 11  1  0
  8  9  1  0
  8 10  1  0
  8 17  1  0
 11 12  1  0
 11 13  1  0
 11 14  1  0
 14 15  1  0
 14 16  1  0
 14 23  1  0
 17 18  1  0
 17 19  1  0
 17 20  1  0
 20 21  1  0
 20 22  1  0
 20 26  1  0
 23 24  1  0
 23 25  1  0
 23 29  1  0
 26 27  1  0
 26 28  1  0
 26 36  1  0
 29 30  1  0
 29 31  1  0
 29 32  1  0
 32 33  1  0
 32 34  1  0
 32 35  1  0
 36 37  1  0
 36 38  1  0
 36 39  1  0
M  CHG  1   1   1
M  RAD  1   1   2
M  END
$$$$

     RDKit          3D

 39 38  0  0  0  0  0  0  0  0999 V2000
    0.2398   -0.2356    2.6426 S   0  0  0  0  0  2  0  0  0  0  0  0
    0.3656   -1.6574    4.1752 Si  0  0  0  0  0  4  0  0  0  0  0  0
    1.5836   -1.3858    4.9903 H   0  0  0  0  0  0  0  0  0  0  0  0
    0.5861   -3.0106    3.5964 H   0  0  0  0  0  0  0  0  0  0  0  0
   -1.5033    0.9634    2.6708 Si  0  0  0  0  0  4  0  0  0  0  0  0
   -1.5084    1.7808    1.4287 H   0  0  0  0  0  0  0  0  0  0  0  0
   -2.7063    0.1195    2.6046 H   0  0  0  0  0  0  0  0  0  0  0  0
   -1.3669   -1.7404    5.5204 Si  0  0  0  0  0  4  0  0  0  0  0  0
   -1.9942   -0.4352    5.7659 H   0  0  0  0  0  0  0  0  0  0  0  0
   -0.9030   -2.2260    6.8523 H   0  0  0  0  0  0  0  0  0  0  0  0
   -1.5552    2.3794    4.3820 Si  0  0  0  0  0  4  0  0  0  0  0  0
   -2.1276    3.6842    3.9456 H   0  0  0  0  0  0  0  0  0  0  0  0
   -2.4457    1.9029    5.4635 H   0  0  0  0  0  0  0  0  0  0  0  0
    0.4520    2.7390    5.2449 Si  0  0  0  0  0  4  0  0  0  0  0  0
    0.4219    4.0231    5.9824 H   0  0  0  0  0  0  0  0  0  0  0  0
    0.7555    1.6966    6.2271 H   0  0  0  0  0  0  0  0  0  0  0  0
   -2.9583   -3.1254    4.7964 Si  0  0  0  0  0  4  0  0  0  0  0  0
   -4.0441   -2.3815    4.1039 H   0  0  0  0  0  0  0  0  0  0  0  0
   -2.4395   -4.1366    3.8802 H   0  0  0  0  0  0  0  0  0  0  0  0
   -3.8821   -4.1261    6.5742 Si  0  0  0  0  0  4  0  0  0  0  0  0
   -4.8481   -5.1386    6.1977 H   0  0  0  0  0  0  0  0  0  0  0  0
   -2.7600   -4.7336    7.3436 H   0  0  0  0  0  0  0  0  0  0  0  0
    2.0305    2.8888    3.6820 Si  0  0  0  0  0  4  0  0  0  0  0  0
    1.3849    2.7054    2.3693 H   0  0  0  0  0  0  0  0  0  0  0  0
    3.0381    1.8348    3.9243 H   0  0  0  0  0  0  0  0  0  0  0  0
   -4.7727   -2.5575    7.9074 Si  0  0  0  0  0  4  0  0  0  0  0  0
   -4.1432   -1.2500    7.6562 H   0  0  0  0  0  0  0  0  0  0  0  0
   -4.5268   -2.8779    9.3327 H   0  0  0  0  0  0  0  0  0  0  0  0
    3.0244    4.8794    3.7334 Si  0  0  0  0  0  4  0  0  0  0  0  0
    4.2974    4.7934    3.0095 H   0  0  0  0  0  0  0  0  0  0  0  0
    2.1616    5.8614    3.0595 H   0  0  0  0  0  0  0  0  0  0  0  0
    3.3416    5.5197    5.8570 Si  0  0  0  0  0  4  0  0  0  0  0  0
    2.9523    4.4350    6.7865 H   0  0  0  0  0  0  0  0  0  0  0  0
    2.4926    6.6855    6.1534 H   0  0  0  0  0  0  0  0  0  0  0  0
    4.7426    5.8461    6.1131 H   0  0  0  0  0  0  0  0  0  0  0  0
   -6.9635   -2.4819    7.5364 Si  0  0  0  0  0  4  0  0  0  0  0  0
   -7.2440   -3.0522    6.2165 H   0  0  0  0  0  0  0  0  0  0  0  0
   -7.6233   -3.3031    8.5581 H   0  0  0  0  0  0  0  0  0  0  0  0
   -7.4699   -1.1012    7.5983 H   0  0  0  0  0  0  0  0  0  0  0  0
  1  2  1  0
  1  5  1  0
  2  3  1  0
  2  4  1  0
  2  8  1  0
  5  6  1  0
  5  7  1  0
  5 11  1  0
  8  9  1  0
  8 10  1  0
  8 17  1  0
 11 12  1  0
 11 13  1  0
 11 14  1  0
 14 15  1  0
 14 16  1  0
 14 23  1  0
 17 18  1  0
 17 19  1  0
 17 20  1  0
 20 21  1  0
 20 22  1  0
 20 26  1  0
 23 24  1  0
 23 25  1  0
 23 29  1  0
 26 27  1  0
 26 28  1  0
 26 36  1  0
 29 30  1  0
 29 31  1  0
 29 32  1  0
 32 33  1  0
 32 34  1  0
 32 35  1  0
 36 37  1  0
 36 38  1  0
 36 39  1  0
M  CHG  1   1   1
M  RAD  1   1   2
M  END
$$$$

     RDKit          3D

 39 38  0  0  0  0  0  0  0  0999 V2000
    0.2398   -0.2356    2.6426 S   0  0  0  0  0  2  0  0  0  0  0  0
   -0.5065   -1.8633    3.8075 Si  0  0  0  0  0  4  0  0  0  0  0  0
   -0.8978   -1.3406    5.1257 H   0  0  0  0  0  0  0  0  0  0  0  0
   -1.6846   -2.4818    3.1730 H   0  0  0  0  0  0  0  0  0  0  0  0
   -0.5880    1.6327    3.3258 Si  0  0  0  0  0  4  0  0  0  0  0  0
   -0.9453    2.4797    2.1805 H   0  0  0  0  0  0  0  0  0  0  0  0
   -1.7995    1.4025    4.1096 H   0  0  0  0  0  0  0  0  0  0  0  0
    1.0639   -3.4321    4.0947 Si  0  0  0  0  0  4  0  0  0  0  0  0
    0.8702   -4.4747    3.0797 H   0  0  0  0  0  0  0  0  0  0  0  0
    2.3985   -2.8509    3.8584 H   0  0  0  0  0  0  0  0  0  0  0  0
    0.9141    2.7241    4.5788 Si  0  0  0  0  0  4  0  0  0  0  0  0
    1.6346    1.7987    5.4531 H   0  0  0  0  0  0  0  0  0  0  0  0
    1.8962    3.3223    3.6494 H   0  0  0  0  0  0  0  0  0  0  0  0
   -0.0612    4.2627    5.8564 Si  0  0  0  0  0  4  0  0  0  0  0  0
   -1.3001    4.7367    5.2429 H   0  0  0  0  0  0  0  0  0  0  0  0
    0.8285    5.4407    6.0090 H   0  0  0  0  0  0  0  0  0  0  0  0
    0.9505   -4.3182    6.1377 Si  0  0  0  0  0  4  0  0  0  0  0  0
    2.2907   -4.5690    6.6503 H   0  0  0  0  0  0  0  0  0  0  0  0
    0.1999   -5.5817    6.0799 H   0  0  0  0  0  0  0  0  0  0  0  0
   -0.0580   -2.8493    7.5063 Si  0  0  0  0  0  4  0  0  0  0  0  0
   -0.0316   -3.3107    8.8928 H   0  0  0  0  0  0  0  0  0  0  0  0
   -1.4895   -2.8240    7.0889 H   0  0  0  0  0  0  0  0  0  0  0  0
   -0.5099    3.4977    7.8917 Si  0  0  0  0  0  4  0  0  0  0  0  0
    0.5901    2.6413    8.3529 H   0  0  0  0  0  0  0  0  0  0  0  0
   -0.5862    4.6448    8.8278 H   0  0  0  0  0  0  0  0  0  0  0  0
    0.8665   -0.8603    7.2536 Si  0  0  0  0  0  4  0  0  0  0  0  0
    1.5566   -0.7945    5.9514 H   0  0  0  0  0  0  0  0  0  0  0  0
   -0.1752    0.1568    7.2458 H   0  0  0  0  0  0  0  0  0  0  0  0
   -2.4575    2.4294    7.9750 Si  0  0  0  0  0  4  0  0  0  0  0  0
   -2.5114    1.4795    6.8357 H   0  0  0  0  0  0  0  0  0  0  0  0
   -3.5804    3.3463    7.9847 H   0  0  0  0  0  0  0  0  0  0  0  0
   -2.5413    1.2015    9.8541 Si  0  0  0  0  0  4  0  0  0  0  0  0
   -1.7179    0.0061    9.6733 H   0  0  0  0  0  0  0  0  0  0  0  0
   -1.9740    1.9633   10.9785 H   0  0  0  0  0  0  0  0  0  0  0  0
   -3.9124    0.7651   10.1266 H   0  0  0  0  0  0  0  0  0  0  0  0
    2.3451   -0.3956    8.8424 Si  0  0  0  0  0  4  0  0  0  0  0  0
    3.0220    0.8710    8.4616 H   0  0  0  0  0  0  0  0  0  0  0  0
    1.7284   -0.1678   10.1464 H   0  0  0  0  0  0  0  0  0  0  0  0
    3.3965   -1.4184    8.9048 H   0  0  0  0  0  0  0  0  0  0  0  0
  1  2  1  0
  1  5  1  0
  2  3  1  0
  2  4  1  0
  2  8  1  0
  5  6  1  0
  5  7  1  0
  5 11  1  0
  8  9  1  0
  8 10  1  0
  8 17  1  0
 11 12  1  0
 11 13  1  0
 11 14  1  0
 14 15  1  0
 14 16  1  0
 14 23  1  0
 17 18  1  0
 17 19  1  0
 17 20  1  0
 20 21  1  0
 20 22  1  0
 20 26  1  0
 23 24  1  0
 23 25  1  0
 23 29  1  0
 26 27  1  0
 26 28  1  0
 26 36  1  0
 29 30  1  0
 29 31  1  0
 29 32  1  0
 32 33  1  0
 32 34  1  0
 32 35  1  0
 36 37  1  0
 36 38  1  0
 36 39  1  0
M  CHG  1   1   1
M  RAD  1   1   2
M  END
$$$$

     RDKit          3D

 39 38  0  0  0  0  0  0  0  0999 V2000
    0.2398   -0.2356    2.6426 S   0  0  0  0  0  2  0  0  0  0  0  0
   -1.5077    0.9542    2.7702 Si  0  0  0  0  0  4  0  0  0  0  0  0
   -1.7711    1.5461    1.4504 H   0  0  0  0  0  0  0  0  0  0  0  0
   -2.7056    0.1929    3.1455 H   0  0  0  0  0  0  0  0  0  0  0  0
    0.7146   -1.2294    4.4492 Si  0  0  0  0  0  4  0  0  0  0  0  0
    2.0933   -0.8278    4.8458 H   0  0  0  0  0  0  0  0  0  0  0  0
    0.7393   -2.6903    4.3206 H   0  0  0  0  0  0  0  0  0  0  0  0
   -1.2702    2.6531    4.2122 Si  0  0  0  0  0  4  0  0  0  0  0  0
   -2.3273    3.6441    3.8566 H   0  0  0  0  0  0  0  0  0  0  0  0
   -1.5576    2.2350    5.5839 H   0  0  0  0  0  0  0  0  0  0  0  0
   -0.6464   -0.6670    6.1233 Si  0  0  0  0  0  4  0  0  0  0  0  0
   -0.1739    0.6048    6.6740 H   0  0  0  0  0  0  0  0  0  0  0  0
   -1.9900   -0.4734    5.5558 H   0  0  0  0  0  0  0  0  0  0  0  0
   -0.6309   -2.2558    7.6881 Si  0  0  0  0  0  4  0  0  0  0  0  0
    0.0070   -3.4636    7.2033 H   0  0  0  0  0  0  0  0  0  0  0  0
   -2.0386   -2.5584    8.0608 H   0  0  0  0  0  0  0  0  0  0  0  0
    0.6831    3.6541    3.9948 Si  0  0  0  0  0  4  0  0  0  0  0  0
    0.5349    5.0584    4.4696 H   0  0  0  0  0  0  0  0  0  0  0  0
    1.0099    3.7368    2.5554 H   0  0  0  0  0  0  0  0  0  0  0  0
    2.3066    2.7048    5.1276 Si  0  0  0  0  0  4  0  0  0  0  0  0
    3.2851    2.1221    4.1658 H   0  0  0  0  0  0  0  0  0  0  0  0
    1.8880    1.6400    6.0139 H   0  0  0  0  0  0  0  0  0  0  0  0
    0.4205   -1.4403    9.5073 Si  0  0  0  0  0  4  0  0  0  0  0  0
    0.8509   -2.4977   10.3953 H   0  0  0  0  0  0  0  0  0  0  0  0
    1.5947   -0.6836    8.9868 H   0  0  0  0  0  0  0  0  0  0  0  0
    3.4379    4.2109    6.3542 Si  0  0  0  0  0  4  0  0  0  0  0  0
    3.6970    3.7258    7.6996 H   0  0  0  0  0  0  0  0  0  0  0  0
    4.7149    4.5585    5.7066 H   0  0  0  0  0  0  0  0  0  0  0  0
   -0.9481    0.0197   10.4690 Si  0  0  0  0  0  4  0  0  0  0  0  0
   -1.1221   -0.3416   11.8852 H   0  0  0  0  0  0  0  0  0  0  0  0
   -2.3066   -0.0181    9.8671 H   0  0  0  0  0  0  0  0  0  0  0  0
   -0.2065    2.1115   10.2775 Si  0  0  0  0  0  4  0  0  0  0  0  0
    0.2390    2.6316   11.5825 H   0  0  0  0  0  0  0  0  0  0  0  0
   -1.2303    3.0090    9.7121 H   0  0  0  0  0  0  0  0  0  0  0  0
    0.9670    2.1337    9.3911 H   0  0  0  0  0  0  0  0  0  0  0  0
    2.2613    6.1112    6.5283 Si  0  0  0  0  0  4  0  0  0  0  0  0
    1.0129    5.9026    7.2506 H   0  0  0  0  0  0  0  0  0  0  0  0
    3.0808    7.0521    7.3049 H   0  0  0  0  0  0  0  0  0  0  0  0
    2.0610    6.7092    5.2007 H   0  0  0  0  0  0  0  0  0  0  0  0
  1  2  1  0
  1  5  1  0
  2  3  1  0
  2  4  1  0
  2  8  1  0
  5  6  1  0
  5  7  1  0
  5 11  1  0
  8  9  1  0
  8 10  1  0
  8 17  1  0
 11 12  1  0
 11 13  1  0
 11 14  1  0
 14 15  1  0
 14 16  1  0
 14 23  1  0
 17 18  1  0
 17 19  1  0
 17 20  1  0
 20 21  1  0
 20 22  1  0
 20 26  1  0
 23 24  1  0
 23 25  1  0
 23 29  1  0
 26 27  1  0
 26 28  1  0
 26 36  1  0
 29 30  1  0
 29 31  1  0
 29 32  1  0
 32 33  1  0
 32 34  1  0
 32 35  1  0
 36 37  1  0
 36 38  1  0
 36 39  1  0
M  CHG  1   1   1
M  RAD  1   1   2
M  END
$$$$

     RDKit          3D

 39 38  0  0  0  0  0  0  0  0999 V2000
    0.2398   -0.2356    2.6426 S   0  0  0  0  0  2  0  0  0  0  0  0
    0.6349   -0.0597    4.7474 Si  0  0  0  0  0  4  0  0  0  0  0  0
    1.2518    1.2791    4.9535 H   0  0  0  0  0  0  0  0  0  0  0  0
   -0.5904   -0.1150    5.5405 H   0  0  0  0  0  0  0  0  0  0  0  0
   -1.8474   -0.0273    2.2316 Si  0  0  0  0  0  4  0  0  0  0  0  0
   -2.2168   -1.0888    1.2685 H   0  0  0  0  0  0  0  0  0  0  0  0
   -2.0847    1.2631    1.5625 H   0  0  0  0  0  0  0  0  0  0  0  0
    2.1259   -1.5774    5.3794 Si  0  0  0  0  0  4  0  0  0  0  0  0
    2.9044   -1.0399    6.5118 H   0  0  0  0  0  0  0  0  0  0  0  0
    3.0409   -1.8227    4.2818 H   0  0  0  0  0  0  0  0  0  0  0  0
   -3.0732   -0.2000    4.0789 Si  0  0  0  0  0  4  0  0  0  0  0  0
   -4.3478   -0.8526    3.7118 H   0  0  0  0  0  0  0  0  0  0  0  0
   -2.3864   -0.9883    5.1144 H   0  0  0  0  0  0  0  0  0  0  0  0
   -3.5125    1.8441    4.8743 Si  0  0  0  0  0  4  0  0  0  0  0  0
   -4.6160    2.3941    4.0530 H   0  0  0  0  0  0  0  0  0  0  0  0
   -2.3263    2.6915    4.7759 H   0  0  0  0  0  0  0  0  0  0  0  0
    1.1137   -3.4750    6.0564 Si  0  0  0  0  0  4  0  0  0  0  0  0
    2.1683   -4.2534    6.7643 H   0  0  0  0  0  0  0  0  0  0  0  0
    0.6137   -4.2254    4.9147 H   0  0  0  0  0  0  0  0  0  0  0  0
   -0.5112   -2.9966    7.4814 Si  0  0  0  0  0  4  0  0  0  0  0  0
   -0.8460   -1.5540    7.3102 H   0  0  0  0  0  0  0  0  0  0  0  0
   -0.0198   -3.1406    8.8588 H   0  0  0  0  0  0  0  0  0  0  0  0
   -4.2609    1.6344    6.9514 Si  0  0  0  0  0  4  0  0  0  0  0  0
   -4.9865    0.3590    7.0661 H   0  0  0  0  0  0  0  0  0  0  0  0
   -5.1370    2.7830    7.2545 H   0  0  0  0  0  0  0  0  0  0  0  0
   -2.3428   -4.1668    7.1466 Si  0  0  0  0  0  4  0  0  0  0  0  0
   -3.3224   -3.3909    6.3577 H   0  0  0  0  0  0  0  0  0  0  0  0
   -2.9831   -4.4413    8.4496 H   0  0  0  0  0  0  0  0  0  0  0  0
   -2.6067    1.6025    8.4420 Si  0  0  0  0  0  4  0  0  0  0  0  0
   -3.2037    1.3293    9.7608 H   0  0  0  0  0  0  0  0  0  0  0  0
   -1.6189    0.5700    8.1154 H   0  0  0  0  0  0  0  0  0  0  0  0
   -1.5469    3.5545    8.5495 Si  0  0  0  0  0  4  0  0  0  0  0  0
   -2.3564    4.5432    9.2545 H   0  0  0  0  0  0  0  0  0  0  0  0
   -0.2867    3.3295    9.3095 H   0  0  0  0  0  0  0  0  0  0  0  0
   -1.1932    3.9596    7.1910 H   0  0  0  0  0  0  0  0  0  0  0  0
   -1.9843   -6.0945    6.1256 Si  0  0  0  0  0  4  0  0  0  0  0  0
   -1.2359   -7.0379    6.9686 H   0  0  0  0  0  0  0  0  0  0  0  0
   -1.3003   -5.8481    4.8593 H   0  0  0  0  0  0  0  0  0  0  0  0
   -3.2892   -6.7155    5.8394 H   0  0  0  0  0  0  0  0  0  0  0  0
  1  2  1  0
  1  5  1  0
  2  3  1  0
  2  4  1  0
  2  8  1  0
  5  6  1  0
  5  7  1  0
  5 11  1  0
  8  9  1  0
  8 10  1  0
  8 17  1  0
 11 12  1  0
 11 13  1  0
 11 14  1  0
 14 15  1  0
 14 16  1  0
 14 23  1  0
 17 18  1  0
 17 19  1  0
 17 20  1  0
 20 21  1  0
 20 22  1  0
 20 26  1  0
 23 24  1  0
 23 25  1  0
 23 29  1  0
 26 27  1  0
 26 28  1  0
 26 36  1  0
 29 30  1  0
 29 31  1  0
 29 32  1  0
 32 33  1  0
 32 34  1  0
 32 35  1  0
 36 37  1  0
 36 38  1  0
 36 39  1  0
M  CHG  1   1   1
M  RAD  1   1   2
M  END
$$$$

     RDKit          3D

 39 38  0  0  0  0  0  0  0  0999 V2000
    0.2398   -0.2356    2.6426 S   0  0  0  0  0  2  0  0  0  0  0  0
    0.8794    1.5638    3.6545 Si  0  0  0  0  0  4  0  0  0  0  0  0
    0.1380    2.6833    3.0571 H   0  0  0  0  0  0  0  0  0  0  0  0
    0.5719    1.5161    5.0790 H   0  0  0  0  0  0  0  0  0  0  0  0
   -0.0033   -1.7805    4.1411 Si  0  0  0  0  0  4  0  0  0  0  0  0
   -1.2765   -1.4738    4.8424 H   0  0  0  0  0  0  0  0  0  0  0  0
   -0.1450   -3.0911    3.5440 H   0  0  0  0  0  0  0  0  0  0  0  0
    3.0625    1.9071    3.3680 Si  0  0  0  0  0  4  0  0  0  0  0  0
    3.2899    2.7685    2.1974 H   0  0  0  0  0  0  0  0  0  0  0  0
    3.6784    0.5872    3.0878 H   0  0  0  0  0  0  0  0  0  0  0  0
    1.7078   -1.6253    5.5435 Si  0  0  0  0  0  4  0  0  0  0  0  0
    1.2891   -0.7281    6.6561 H   0  0  0  0  0  0  0  0  0  0  0  0
    2.8539   -0.9431    4.8995 H   0  0  0  0  0  0  0  0  0  0  0  0
    2.3668   -3.6093    6.2958 Si  0  0  0  0  0  4  0  0  0  0  0  0
    3.6904   -3.9415    5.7084 H   0  0  0  0  0  0  0  0  0  0  0  0
    1.4369   -4.6760    6.0020 H   0  0  0  0  0  0  0  0  0  0  0  0
    4.0214    2.7359    5.1902 Si  0  0  0  0  0  4  0  0  0  0  0  0
    5.4751    2.4796    5.1139 H   0  0  0  0  0  0  0  0  0  0  0  0
    3.4810    2.0817    6.3766 H   0  0  0  0  0  0  0  0  0  0  0  0
    3.7370    4.9339    5.3654 Si  0  0  0  0  0  4  0  0  0  0  0  0
    3.9873    5.6364    4.1109 H   0  0  0  0  0  0  0  0  0  0  0  0
    4.7298    5.4291    6.3544 H   0  0  0  0  0  0  0  0  0  0  0  0
    2.7095   -3.3900    8.5156 Si  0  0  0  0  0  4  0  0  0  0  0  0
    3.5634   -4.4415    9.0285 H   0  0  0  0  0  0  0  0  0  0  0  0
    1.3832   -3.3947    9.1608 H   0  0  0  0  0  0  0  0  0  0  0  0
    1.7025    5.4171    6.1759 Si  0  0  0  0  0  4  0  0  0  0  0  0
    1.7399    6.7323    6.8266 H   0  0  0  0  0  0  0  0  0  0  0  0
    0.7205    5.3803    5.0721 H   0  0  0  0  0  0  0  0  0  0  0  0
    3.6661   -1.3588    8.7467 Si  0  0  0  0  0  4  0  0  0  0  0  0
    4.1499   -1.1477   10.0937 H   0  0  0  0  0  0  0  0  0  0  0  0
    2.6551   -0.3721    8.3255 H   0  0  0  0  0  0  0  0  0  0  0  0
    5.3172   -1.2728    7.2276 Si  0  0  0  0  0  4  0  0  0  0  0  0
    4.8907   -2.0080    6.0103 H   0  0  0  0  0  0  0  0  0  0  0  0
    6.5110   -1.9428    7.7298 H   0  0  0  0  0  0  0  0  0  0  0  0
    5.6071    0.0956    6.8210 H   0  0  0  0  0  0  0  0  0  0  0  0
    1.2071    3.8804    7.7331 Si  0  0  0  0  0  4  0  0  0  0  0  0
    1.5795    2.5306    7.2789 H   0  0  0  0  0  0  0  0  0  0  0  0
    1.9542    4.2002    8.9596 H   0  0  0  0  0  0  0  0  0  0  0  0
   -0.2312    3.8955    8.0320 H   0  0  0  0  0  0  0  0  0  0  0  0
  1  2  1  0
  1  5  1  0
  2  3  1  0
  2  4  1  0
  2  8  1  0
  5  6  1  0
  5  7  1  0
  5 11  1  0
  8  9  1  0
  8 10  1  0
  8 17  1  0
 11 12  1  0
 11 13  1  0
 11 14  1  0
 14 15  1  0
 14 16  1  0
 14 23  1  0
 17 18  1  0
 17 19  1  0
 17 20  1  0
 20 21  1  0
 20 22  1  0
 20 26  1  0
 23 24  1  0
 23 25  1  0
 23 29  1  0
 26 27  1  0
 26 28  1  0
 26 36  1  0
 29 30  1  0
 29 31  1  0
 29 32  1  0
 32 33  1  0
 32 34  1  0
 32 35  1  0
 36 37  1  0
 36 38  1  0
 36 39  1  0
M  CHG  1   1   1
M  RAD  1   1   2
M  END
$$$$

     RDKit          3D

 39 38  0  0  0  0  0  0  0  0999 V2000
    0.2398   -0.2356    2.6426 S   0  0  0  0  0  2  0  0  0  0  0  0
    1.3992   -1.3285    4.0656 Si  0  0  0  0  0  4  0  0  0  0  0  0
    0.6690   -1.3341    5.3427 H   0  0  0  0  0  0  0  0  0  0  0  0
    1.6076   -2.7218    3.6316 H   0  0  0  0  0  0  0  0  0  0  0  0
   -1.8485   -0.2724    3.1721 Si  0  0  0  0  0  4  0  0  0  0  0  0
   -2.6736   -0.4702    1.9734 H   0  0  0  0  0  0  0  0  0  0  0  0
   -2.1259   -1.3710    4.0948 H   0  0  0  0  0  0  0  0  0  0  0  0
    3.3950   -0.3668    4.3840 Si  0  0  0  0  0  4  0  0  0  0  0  0
    4.3779   -1.0420    3.5279 H   0  0  0  0  0  0  0  0  0  0  0  0
    3.3459    1.0407    3.9470 H   0  0  0  0  0  0  0  0  0  0  0  0
   -2.4315    1.6681    4.1270 Si  0  0  0  0  0  4  0  0  0  0  0  0
   -1.3830    2.1399    5.0315 H   0  0  0  0  0  0  0  0  0  0  0  0
   -2.5668    2.6597    3.0385 H   0  0  0  0  0  0  0  0  0  0  0  0
   -4.3119    1.4621    5.2983 Si  0  0  0  0  0  4  0  0  0  0  0  0
   -5.1445    0.3893    4.7580 H   0  0  0  0  0  0  0  0  0  0  0  0
   -5.1058    2.7134    5.2169 H   0  0  0  0  0  0  0  0  0  0  0  0
    4.0186   -0.4980    6.5209 Si  0  0  0  0  0  4  0  0  0  0  0  0
    4.6872    0.7317    6.9241 H   0  0  0  0  0  0  0  0  0  0  0  0
    4.9339   -1.6364    6.6924 H   0  0  0  0  0  0  0  0  0  0  0  0
    2.1840   -0.7464    7.7938 Si  0  0  0  0  0  4  0  0  0  0  0  0
    2.5134   -0.6914    9.2166 H   0  0  0  0  0  0  0  0  0  0  0  0
    1.6856   -2.1252    7.5210 H   0  0  0  0  0  0  0  0  0  0  0  0
   -3.9197    1.0597    7.4462 Si  0  0  0  0  0  4  0  0  0  0  0  0
   -2.7680    1.8517    7.8964 H   0  0  0  0  0  0  0  0  0  0  0  0
   -5.0894    1.5089    8.2384 H   0  0  0  0  0  0  0  0  0  0  0  0
    0.6790    0.7599    7.2099 Si  0  0  0  0  0  4  0  0  0  0  0  0
    0.9657    1.2469    5.8472 H   0  0  0  0  0  0  0  0  0  0  0  0
   -0.6374    0.1388    7.1820 H   0  0  0  0  0  0  0  0  0  0  0  0
   -3.6220   -1.1055    7.8524 Si  0  0  0  0  0  4  0  0  0  0  0  0
   -2.6660   -1.6358    6.8484 H   0  0  0  0  0  0  0  0  0  0  0  0
   -4.8753   -1.8339    7.8621 H   0  0  0  0  0  0  0  0  0  0  0  0
   -2.6566   -1.3484    9.8660 Si  0  0  0  0  0  4  0  0  0  0  0  0
   -1.2365   -1.0169    9.7512 H   0  0  0  0  0  0  0  0  0  0  0  0
   -3.2541   -0.4072   10.8272 H   0  0  0  0  0  0  0  0  0  0  0  0
   -2.7581   -2.7354   10.3248 H   0  0  0  0  0  0  0  0  0  0  0  0
    0.6450    2.5096    8.5752 Si  0  0  0  0  0  4  0  0  0  0  0  0
   -0.2647    3.5210    7.9774 H   0  0  0  0  0  0  0  0  0  0  0  0
    0.1107    2.1916    9.8965 H   0  0  0  0  0  0  0  0  0  0  0  0
    1.9659    3.1452    8.6567 H   0  0  0  0  0  0  0  0  0  0  0  0
  1  2  1  0
  1  5  1  0
  2  3  1  0
  2  4  1  0
  2  8  1  0
  5  6  1  0
  5  7  1  0
  5 11  1  0
  8  9  1  0
  8 10  1  0
  8 17  1  0
 11 12  1  0
 11 13  1  0
 11 14  1  0
 14 15  1  0
 14 16  1  0
 14 23  1  0
 17 18  1  0
 17 19  1  0
 17 20  1  0
 20 21  1  0
 20 22  1  0
 20 26  1  0
 23 24  1  0
 23 25  1  0
 23 29  1  0
 26 27  1  0
 26 28  1  0
 26 36  1  0
 29 30  1  0
 29 31  1  0
 29 32  1  0
 32 33  1  0
 32 34  1  0
 32 35  1  0
 36 37  1  0
 36 38  1  0
 36 39  1  0
M  CHG  1   1   1
M  RAD  1   1   2
M  END
$$$$
