
     RDKit          3D

 39 38  0  0  0  0  0  0  0  0999 V2000
    0.0527   -0.0543   -3.1879 S   0  0  0  0  0  2  0  0  0  0  0  0
    2.0960    0.0254   -3.7841 Si  0  0  0  0  0  4  0  0  0  0  0  0
    2.9572   -0.0997   -2.5886 H   0  0  0  0  0  0  0  0  0  0  0  0
    2.3468   -1.0873   -4.7080 H   0  0  0  0  0  0  0  0  0  0  0  0
   -1.0176   -1.5940   -4.2528 Si  0  0  0  0  0  4  0  0  0  0  0  0
   -2.2925   -0.9657   -4.7049 H   0  0  0  0  0  0  0  0  0  0  0  0
   -1.3829   -2.7032   -3.3768 H   0  0  0  0  0  0  0  0  0  0  0  0
    2.5769    1.9169   -4.8694 Si  0  0  0  0  0  4  0  0  0  0  0  0
    2.4140    1.7732   -6.3195 H   0  0  0  0  0  0  0  0  0  0  0  0
    1.6885    2.9653   -4.3701 H   0  0  0  0  0  0  0  0  0  0  0  0
    0.0734   -2.2488   -6.0637 Si  0  0  0  0  0  4  0  0  0  0  0  0
   -0.9198   -2.8674   -6.9865 H   0  0  0  0  0  0  0  0  0  0  0  0
    0.5936   -1.0683   -6.7602 H   0  0  0  0  0  0  0  0  0  0  0  0
    1.6314   -3.7528   -5.6410 Si  0  0  0  0  0  4  0  0  0  0  0  0
    0.9588   -5.0600   -5.4166 H   0  0  0  0  0  0  0  0  0  0  0  0
    2.4235   -3.4732   -4.4601 H   0  0  0  0  0  0  0  0  0  0  0  0
    4.6792    2.4918   -4.4604 Si  0  0  0  0  0  4  0  0  0  0  0  0
    4.9156    2.3323   -3.0089 H   0  0  0  0  0  0  0  0  0  0  0  0
    4.8550    3.8954   -4.8392 H   0  0  0  0  0  0  0  0  0  0  0  0
    6.1241    1.1618   -5.5135 Si  0  0  0  0  0  4  0  0  0  0  0  0
    5.9369   -0.2058   -5.0309 H   0  0  0  0  0  0  0  0  0  0  0  0
    7.4832    1.6015   -5.1299 H   0  0  0  0  0  0  0  0  0  0  0  0
    2.9779   -3.8857   -7.4451 Si  0  0  0  0  0  4  0  0  0  0  0  0
    3.9064   -2.7462   -7.3732 H   0  0  0  0  0  0  0  0  0  0  0  0
    3.6873   -5.1642   -7.3825 H   0  0  0  0  0  0  0  0  0  0  0  0
    5.9492    1.3009   -7.7107 Si  0  0  0  0  0  4  0  0  0  0  0  0
    4.5759    1.2397   -8.1941 H   0  0  0  0  0  0  0  0  0  0  0  0
    6.6684    0.1350   -8.2980 H   0  0  0  0  0  0  0  0  0  0  0  0
    1.7838   -3.7569   -9.3262 Si  0  0  0  0  0  4  0  0  0  0  0  0
    0.3530   -3.8508   -9.0081 H   0  0  0  0  0  0  0  0  0  0  0  0
    2.1603   -4.8501  -10.2584 H   0  0  0  0  0  0  0  0  0  0  0  0
    2.1795   -1.8364  -10.4061 Si  0  0  0  0  0  4  0  0  0  0  0  0
    0.9986   -1.4491  -11.1944 H   0  0  0  0  0  0  0  0  0  0  0  0
    2.4618   -0.8158   -9.4055 H   0  0  0  0  0  0  0  0  0  0  0  0
    3.3576   -2.0044  -11.2849 H   0  0  0  0  0  0  0  0  0  0  0  0
    6.9766    3.1372   -8.4878 Si  0  0  0  0  0  4  0  0  0  0  0  0
    8.0075    3.5034   -7.4904 H   0  0  0  0  0  0  0  0  0  0  0  0
    5.9809    4.2079   -8.6167 H   0  0  0  0  0  0  0  0  0  0  0  0
    7.6279    2.8719   -9.7687 H   0  0  0  0  0  0  0  0  0  0  0  0
  1  2  1  0
  1  5  1  0
  2  3  1  0
  2  4  1  0
  2  8  1  0
  5  6  1  0
  5  7  1  0
  5 11  1  0
  8  9  1  0
  8 10  1  0
  8 17  1  0
 11 12  1  0
 11 13  1  0
 11 14  1  0
 14 15  1  0
 14 16  1  0
 14 23  1  0
 17 18  1  0
 17 19  1  0
 17 20  1  0
 20 21  1  0
 20 22  1  0
 20 26  1  0
 23 24  1  0
 23 25  1  0
 23 29  1  0
 26 27  1  0
 26 28  1  0
 26 36  1  0
 29 30  1  0
 29 31  1  0
 29 32  1  0
 32 33  1  0
 32 34  1  0
 32 35  1  0
 36 37  1  0
 36 38  1  0
 36 39  1  0
M  CHG  1   1   1
M  RAD  1   1   2
M  END
$$$$

     RDKit          3D

 39 38  0  0  0  0  0  0  0  0999 V2000
    0.0527   -0.0543   -3.1879 S   0  0  0  0  0  2  0  0  0  0  0  0
    2.0211    0.4901   -3.7926 Si  0  0  0  0  0  4  0  0  0  0  0  0
    2.8940    0.5624   -2.6011 H   0  0  0  0  0  0  0  0  0  0  0  0
    2.5145   -0.5343   -4.7209 H   0  0  0  0  0  0  0  0  0  0  0  0
   -0.6436   -1.7955   -4.2527 Si  0  0  0  0  0  4  0  0  0  0  0  0
   -2.0304   -1.4734   -4.6975 H   0  0  0  0  0  0  0  0  0  0  0  0
   -0.7423   -2.9604   -3.3785 H   0  0  0  0  0  0  0  0  0  0  0  0
    2.0530    2.4435   -4.8744 Si  0  0  0  0  0  4  0  0  0  0  0  0
    1.9201    2.2693   -6.3242 H   0  0  0  0  0  0  0  0  0  0  0  0
    0.9514    3.2609   -4.3682 H   0  0  0  0  0  0  0  0  0  0  0  0
    0.5591   -2.1808   -6.0702 Si  0  0  0  0  0  4  0  0  0  0  0  0
   -0.2714   -3.0078   -6.9906 H   0  0  0  0  0  0  0  0  0  0  0  0
    0.7932   -0.9116   -6.7654 H   0  0  0  0  0  0  0  0  0  0  0  0
    2.4209   -3.2909   -5.6586 Si  0  0  0  0  0  4  0  0  0  0  0  0
    2.0650   -4.7174   -5.4353 H   0  0  0  0  0  0  0  0  0  0  0  0
    3.1341   -2.8404   -4.4803 H   0  0  0  0  0  0  0  0  0  0  0  0
    3.9708    3.4817   -4.4727 Si  0  0  0  0  0  4  0  0  0  0  0  0
    4.2444    3.3776   -3.0227 H   0  0  0  0  0  0  0  0  0  0  0  0
    3.8203    4.8891   -4.8480 H   0  0  0  0  0  0  0  0  0  0  0  0
    5.6758    2.5181   -5.5358 Si  0  0  0  0  0  4  0  0  0  0  0  0
    5.8076    1.1429   -5.0565 H   0  0  0  0  0  0  0  0  0  0  0  0
    6.9007    3.2553   -5.1568 H   0  0  0  0  0  0  0  0  0  0  0  0
    3.7536   -3.1100   -7.4689 Si  0  0  0  0  0  4  0  0  0  0  0  0
    4.3982   -1.7890   -7.3975 H   0  0  0  0  0  0  0  0  0  0  0  0
    4.7360   -4.1932   -7.4130 H   0  0  0  0  0  0  0  0  0  0  0  0
    5.4632    2.6179   -7.7319 Si  0  0  0  0  0  4  0  0  0  0  0  0
    4.1376    2.2462   -8.2095 H   0  0  0  0  0  0  0  0  0  0  0  0
    6.4263    1.6477   -8.3256 H   0  0  0  0  0  0  0  0  0  0  0  0
    2.5525   -3.2532   -9.3445 Si  0  0  0  0  0  4  0  0  0  0  0  0
    1.1823   -3.6713   -9.0205 H   0  0  0  0  0  0  0  0  0  0  0  0
    3.1637   -4.2300  -10.2815 H   0  0  0  0  0  0  0  0  0  0  0  0
    2.4948   -1.2910  -10.4203 Si  0  0  0  0  0  4  0  0  0  0  0  0
    1.2529   -1.1815  -11.2025 H   0  0  0  0  0  0  0  0  0  0  0  0
    2.5419   -0.2348   -9.4179 H   0  0  0  0  0  0  0  0  0  0  0  0
    3.6760   -1.1844  -11.3047 H   0  0  0  0  0  0  0  0  0  0  0  0
    6.0412    4.6414   -8.5079 Si  0  0  0  0  0  4  0  0  0  0  0  0
    6.9663    5.2311   -7.5138 H   0  0  0  0  0  0  0  0  0  0  0  0
    4.8271    5.4573   -8.6294 H   0  0  0  0  0  0  0  0  0  0  0  0
    6.7296    4.5341   -9.7924 H   0  0  0  0  0  0  0  0  0  0  0  0
  1  2  1  0
  1  5  1  0
  2  3  1  0
  2  4  1  0
  2  8  1  0
  5  6  1  0
  5  7  1  0
  5 11  1  0
  8  9  1  0
  8 10  1  0
  8 17  1  0
 11 12  1  0
 11 13  1  0
 11 14  1  0
 14 15  1  0
 14 16  1  0
 14 23  1  0
 17 18  1  0
 17 19  1  0
 17 20  1  0
 20 21  1  0
 20 22  1  0
 20 26  1  0
 23 24  1  0
 23 25  1  0
 23 29  1  0
 26 27  1  0
 26 28  1  0
 26 36  1  0
 29 30  1  0
 29 31  1  0
 29 32  1  0
 32 33  1  0
 32 34  1  0
 32 35  1  0
 36 37  1  0
 36 38  1  0
 36 39  1  0
M  CHG  1   1   1
M  RAD  1   1   2
M  END
$$$$
