
     RDKit          3D

 39 38  0  0  0  0  0  0  0  0999 V2000
    0.0326    0.0868    2.1782 S   0  0  0  0  0  2  0  0  0  0  0  0
    0.7369    1.9718    2.9260 Si  0  0  0  0  0  4  0  0  0  0  0  0
   -0.3677    2.8374    3.3552 H   0  0  0  0  0  0  0  0  0  0  0  0
    1.3090    2.6562    1.7487 H   0  0  0  0  0  0  0  0  0  0  0  0
   -0.8911   -1.1242    3.6184 Si  0  0  0  0  0  4  0  0  0  0  0  0
   -2.0295   -1.8326    2.9622 H   0  0  0  0  0  0  0  0  0  0  0  0
   -1.4896   -0.3838    4.7400 H   0  0  0  0  0  0  0  0  0  0  0  0
    2.3116    1.7306    4.4450 Si  0  0  0  0  0  4  0  0  0  0  0  0
    3.4855    2.5943    4.1110 H   0  0  0  0  0  0  0  0  0  0  0  0
    2.8517    0.3471    4.2711 H   0  0  0  0  0  0  0  0  0  0  0  0
    0.4448   -2.6838    4.4715 Si  0  0  0  0  0  4  0  0  0  0  0  0
    1.7808   -2.5866    3.8624 H   0  0  0  0  0  0  0  0  0  0  0  0
   -0.0450   -4.0508    4.1788 H   0  0  0  0  0  0  0  0  0  0  0  0
    0.5639   -2.5070    6.6985 Si  0  0  0  0  0  4  0  0  0  0  0  0
   -0.0520   -1.2167    7.0620 H   0  0  0  0  0  0  0  0  0  0  0  0
    1.9489   -2.5051    7.1549 H   0  0  0  0  0  0  0  0  0  0  0  0
    1.7462    2.0370    6.5098 Si  0  0  0  0  0  4  0  0  0  0  0  0
    1.3445    0.7342    7.1229 H   0  0  0  0  0  0  0  0  0  0  0  0
    2.9304    2.4405    7.3101 H   0  0  0  0  0  0  0  0  0  0  0  0
    0.1702    3.5024    6.9358 Si  0  0  0  0  0  4  0  0  0  0  0  0
   -0.0804    3.5041    8.3887 H   0  0  0  0  0  0  0  0  0  0  0  0
    0.6980    4.8633    6.6254 H   0  0  0  0  0  0  0  0  0  0  0  0
   -0.6391   -4.1065    7.6977 Si  0  0  0  0  0  4  0  0  0  0  0  0
   -1.6085   -4.6300    6.7376 H   0  0  0  0  0  0  0  0  0  0  0  0
    0.2956   -5.1297    8.1740 H   0  0  0  0  0  0  0  0  0  0  0  0
   -1.7273    3.2028    5.9031 Si  0  0  0  0  0  4  0  0  0  0  0  0
   -1.7564    1.9720    5.1106 H   0  0  0  0  0  0  0  0  0  0  0  0
   -2.0072    4.3136    4.9776 H   0  0  0  0  0  0  0  0  0  0  0  0
   -1.7584   -3.2291    9.4393 Si  0  0  0  0  0  4  0  0  0  0  0  0
   -1.9457   -4.2299   10.4980 H   0  0  0  0  0  0  0  0  0  0  0  0
   -0.9292   -2.1222    9.9639 H   0  0  0  0  0  0  0  0  0  0  0  0
   -3.6828   -2.3676    8.7463 Si  0  0  0  0  0  4  0  0  0  0  0  0
   -3.5390   -0.9557    8.3467 H   0  0  0  0  0  0  0  0  0  0  0  0
   -4.2380   -3.1302    7.6296 H   0  0  0  0  0  0  0  0  0  0  0  0
   -4.6648   -2.3933    9.8482 H   0  0  0  0  0  0  0  0  0  0  0  0
   -3.4753    3.1289    7.3255 Si  0  0  0  0  0  4  0  0  0  0  0  0
   -3.4181    1.8572    8.0580 H   0  0  0  0  0  0  0  0  0  0  0  0
   -4.6863    3.2023    6.4891 H   0  0  0  0  0  0  0  0  0  0  0  0
   -3.4030    4.2915    8.1942 H   0  0  0  0  0  0  0  0  0  0  0  0
  1  2  1  0
  1  5  1  0
  2  3  1  0
  2  4  1  0
  2  8  1  0
  5  6  1  0
  5  7  1  0
  5 11  1  0
  8  9  1  0
  8 10  1  0
  8 17  1  0
 11 12  1  0
 11 13  1  0
 11 14  1  0
 14 15  1  0
 14 16  1  0
 14 23  1  0
 17 18  1  0
 17 19  1  0
 17 20  1  0
 20 21  1  0
 20 22  1  0
 20 26  1  0
 23 24  1  0
 23 25  1  0
 23 29  1  0
 26 27  1  0
 26 28  1  0
 26 36  1  0
 29 30  1  0
 29 31  1  0
 29 32  1  0
 32 33  1  0
 32 34  1  0
 32 35  1  0
 36 37  1  0
 36 38  1  0
 36 39  1  0
M  CHG  1   1   1
M  RAD  1   1   2
M  END
$$$$

     RDKit          3D

 39 38  0  0  0  0  0  0  0  0999 V2000
    0.0326    0.0868    2.1782 S   0  0  0  0  0  2  0  0  0  0  0  0
   -1.1725   -1.1102    3.4716 Si  0  0  0  0  0  4  0  0  0  0  0  0
   -2.3953   -0.3568    3.8011 H   0  0  0  0  0  0  0  0  0  0  0  0
   -1.5195   -2.3446    2.7438 H   0  0  0  0  0  0  0  0  0  0  0  0
   -0.7113    2.0995    2.0583 Si  0  0  0  0  0  4  0  0  0  0  0  0
    0.2884    2.9277    1.3873 H   0  0  0  0  0  0  0  0  0  0  0  0
   -1.9553    2.1514    1.2578 H   0  0  0  0  0  0  0  0  0  0  0  0
   -0.1124   -1.5697    5.3907 Si  0  0  0  0  0  4  0  0  0  0  0  0
    0.3812   -2.9757    5.3396 H   0  0  0  0  0  0  0  0  0  0  0  0
    1.0531   -0.7168    5.4953 H   0  0  0  0  0  0  0  0  0  0  0  0
   -1.1025    2.9444    4.0745 Si  0  0  0  0  0  4  0  0  0  0  0  0
   -1.8317    1.9771    4.9101 H   0  0  0  0  0  0  0  0  0  0  0  0
   -1.9909    4.1205    3.8972 H   0  0  0  0  0  0  0  0  0  0  0  0
    0.8017    3.5848    5.0758 Si  0  0  0  0  0  4  0  0  0  0  0  0
    0.5523    3.6978    6.5163 H   0  0  0  0  0  0  0  0  0  0  0  0
    1.0771    4.9657    4.5911 H   0  0  0  0  0  0  0  0  0  0  0  0
   -1.4950   -1.3878    7.1007 Si  0  0  0  0  0  4  0  0  0  0  0  0
   -1.4735   -2.5956    7.9481 H   0  0  0  0  0  0  0  0  0  0  0  0
   -2.8624   -1.2349    6.5915 H   0  0  0  0  0  0  0  0  0  0  0  0
   -1.0420    0.3575    8.3955 Si  0  0  0  0  0  4  0  0  0  0  0  0
    0.0761    0.0510    9.3106 H   0  0  0  0  0  0  0  0  0  0  0  0
   -0.6705    1.5477    7.6431 H   0  0  0  0  0  0  0  0  0  0  0  0
    2.4837    2.2479    4.5830 Si  0  0  0  0  0  4  0  0  0  0  0  0
    1.9580    1.1177    3.7799 H   0  0  0  0  0  0  0  0  0  0  0  0
    3.4930    2.9718    3.8235 H   0  0  0  0  0  0  0  0  0  0  0  0
   -2.8549    0.7311    9.6795 Si  0  0  0  0  0  4  0  0  0  0  0  0
   -2.8388    2.1371   10.0696 H   0  0  0  0  0  0  0  0  0  0  0  0
   -2.7785   -0.1670   10.8542 H   0  0  0  0  0  0  0  0  0  0  0  0
    3.4441    1.3734    6.3929 Si  0  0  0  0  0  4  0  0  0  0  0  0
    2.4578    0.4960    7.0679 H   0  0  0  0  0  0  0  0  0  0  0  0
    4.5220    0.4736    5.9195 H   0  0  0  0  0  0  0  0  0  0  0  0
    4.2460    2.9100    7.7541 Si  0  0  0  0  0  4  0  0  0  0  0  0
    5.6599    2.5822    8.0644 H   0  0  0  0  0  0  0  0  0  0  0  0
    3.4993    2.8265    9.0380 H   0  0  0  0  0  0  0  0  0  0  0  0
    4.1509    4.2420    7.1916 H   0  0  0  0  0  0  0  0  0  0  0  0
   -4.7212    0.1906    8.5704 Si  0  0  0  0  0  4  0  0  0  0  0  0
   -5.7025    1.2972    8.6490 H   0  0  0  0  0  0  0  0  0  0  0  0
   -5.3731   -0.9895    9.1403 H   0  0  0  0  0  0  0  0  0  0  0  0
   -4.4551   -0.0800    7.1570 H   0  0  0  0  0  0  0  0  0  0  0  0
  1  2  1  0
  1  5  1  0
  2  3  1  0
  2  4  1  0
  2  8  1  0
  5  6  1  0
  5  7  1  0
  5 11  1  0
  8  9  1  0
  8 10  1  0
  8 17  1  0
 11 12  1  0
 11 13  1  0
 11 14  1  0
 14 15  1  0
 14 16  1  0
 14 23  1  0
 17 18  1  0
 17 19  1  0
 17 20  1  0
 20 21  1  0
 20 22  1  0
 20 26  1  0
 23 24  1  0
 23 25  1  0
 23 29  1  0
 26 27  1  0
 26 28  1  0
 26 36  1  0
 29 30  1  0
 29 31  1  0
 29 32  1  0
 32 33  1  0
 32 34  1  0
 32 35  1  0
 36 37  1  0
 36 38  1  0
 36 39  1  0
M  CHG  1   1   1
M  RAD  1   1   2
M  END
$$$$

     RDKit          3D

 39 38  0  0  0  0  0  0  0  0999 V2000
    0.0326    0.0868    2.1782 S   0  0  0  0  0  2  0  0  0  0  0  0
    0.8373    1.9333    2.9209 Si  0  0  0  0  0  4  0  0  0  0  0  0
   -0.2197    2.8669    3.3266 H   0  0  0  0  0  0  0  0  0  0  0  0
    1.4659    2.5717    1.7465 H   0  0  0  0  0  0  0  0  0  0  0  0
   -0.9821   -1.0540    3.6145 Si  0  0  0  0  0  4  0  0  0  0  0  0
   -2.1512   -1.6993    2.9474 H   0  0  0  0  0  0  0  0  0  0  0  0
   -1.5513   -0.2692    4.7210 H   0  0  0  0  0  0  0  0  0  0  0  0
    2.3730    1.6126    4.4648 Si  0  0  0  0  0  4  0  0  0  0  0  0
    3.6010    2.4018    4.1411 H   0  0  0  0  0  0  0  0  0  0  0  0
    2.8322    0.1978    4.3102 H   0  0  0  0  0  0  0  0  0  0  0  0
    0.2462   -2.6825    4.5000 Si  0  0  0  0  0  4  0  0  0  0  0  0
    1.5942   -2.6705    3.9099 H   0  0  0  0  0  0  0  0  0  0  0  0
   -0.3200   -4.0206    4.2113 H   0  0  0  0  0  0  0  0  0  0  0  0
    0.3440   -2.4930    6.7269 Si  0  0  0  0  0  4  0  0  0  0  0  0
   -0.1991   -1.1651    7.0707 H   0  0  0  0  0  0  0  0  0  0  0  0
    1.7200   -2.5693    7.2036 H   0  0  0  0  0  0  0  0  0  0  0  0
    1.7976    1.9707    6.5185 Si  0  0  0  0  0  4  0  0  0  0  0  0
    1.3102    0.6997    7.1362 H   0  0  0  0  0  0  0  0  0  0  0  0
    2.9922    2.3103    7.3328 H   0  0  0  0  0  0  0  0  0  0  0  0
    0.3058    3.5311    6.9092 Si  0  0  0  0  0  4  0  0  0  0  0  0
    0.0351    3.5609    8.3582 H   0  0  0  0  0  0  0  0  0  0  0  0
    0.9181    4.8553    6.5955 H   0  0  0  0  0  0  0  0  0  0  0  0
   -0.9664   -4.0090    7.7213 Si  0  0  0  0  0  4  0  0  0  0  0  0
   -1.9515   -4.4826    6.7514 H   0  0  0  0  0  0  0  0  0  0  0  0
   -0.1012   -5.0816    8.2198 H   0  0  0  0  0  0  0  0  0  0  0  0
   -1.5913    3.3355    5.8511 Si  0  0  0  0  0  4  0  0  0  0  0  0
   -1.6824    2.1016    5.0684 H   0  0  0  0  0  0  0  0  0  0  0  0
   -1.7913    4.4527    4.9125 H   0  0  0  0  0  0  0  0  0  0  0  0
   -2.0560   -3.0508    9.4390 Si  0  0  0  0  0  4  0  0  0  0  0  0
   -2.3177   -4.0291   10.5030 H   0  0  0  0  0  0  0  0  0  0  0  0
   -1.1699   -1.9904    9.9667 H   0  0  0  0  0  0  0  0  0  0  0  0
   -3.9156   -2.0827    8.7107 Si  0  0  0  0  0  4  0  0  0  0  0  0
   -3.6822   -0.6855    8.3017 H   0  0  0  0  0  0  0  0  0  0  0  0
   -4.4994   -2.8210    7.5922 H   0  0  0  0  0  0  0  0  0  0  0  0
   -4.9130   -2.0399    9.7981 H   0  0  0  0  0  0  0  0  0  0  0  0
   -3.3607    3.3786    7.2481 Si  0  0  0  0  0  4  0  0  0  0  0  0
   -3.3898    2.1125    7.9917 H   0  0  0  0  0  0  0  0  0  0  0  0
   -4.5531    3.5164    6.3934 H   0  0  0  0  0  0  0  0  0  0  0  0
   -3.2316    4.5427    8.1083 H   0  0  0  0  0  0  0  0  0  0  0  0
  1  2  1  0
  1  5  1  0
  2  3  1  0
  2  4  1  0
  2  8  1  0
  5  6  1  0
  5  7  1  0
  5 11  1  0
  8  9  1  0
  8 10  1  0
  8 17  1  0
 11 12  1  0
 11 13  1  0
 11 14  1  0
 14 15  1  0
 14 16  1  0
 14 23  1  0
 17 18  1  0
 17 19  1  0
 17 20  1  0
 20 21  1  0
 20 22  1  0
 20 26  1  0
 23 24  1  0
 23 25  1  0
 23 29  1  0
 26 27  1  0
 26 28  1  0
 26 36  1  0
 29 30  1  0
 29 31  1  0
 29 32  1  0
 32 33  1  0
 32 34  1  0
 32 35  1  0
 36 37  1  0
 36 38  1  0
 36 39  1  0
M  CHG  1   1   1
M  RAD  1   1   2
M  END
$$$$

     RDKit          3D

 39 38  0  0  0  0  0  0  0  0999 V2000
    0.0326    0.0868    2.1782 S   0  0  0  0  0  2  0  0  0  0  0  0
    0.6932    1.9865    2.9288 Si  0  0  0  0  0  4  0  0  0  0  0  0
   -0.4305    2.8220    3.3681 H   0  0  0  0  0  0  0  0  0  0  0  0
    1.2402    2.6895    1.7505 H   0  0  0  0  0  0  0  0  0  0  0  0
   -0.8508   -1.1527    3.6195 Si  0  0  0  0  0  4  0  0  0  0  0  0
   -1.9748   -1.8876    2.9677 H   0  0  0  0  0  0  0  0  0  0  0  0
   -1.4610   -0.4319    4.7475 H   0  0  0  0  0  0  0  0  0  0  0  0
    2.2830    1.7802    4.4371 Si  0  0  0  0  0  4  0  0  0  0  0  0
    3.4323    2.6748    4.0991 H   0  0  0  0  0  0  0  0  0  0  0  0
    2.8572    0.4115    4.2546 H   0  0  0  0  0  0  0  0  0  0  0  0
    0.5298   -2.6806    4.4584 Si  0  0  0  0  0  4  0  0  0  0  0  0
    1.8591   -2.5471    3.8415 H   0  0  0  0  0  0  0  0  0  0  0  0
    0.0733   -4.0586    4.1636 H   0  0  0  0  0  0  0  0  0  0  0  0
    0.6584   -2.5089    6.6853 Si  0  0  0  0  0  4  0  0  0  0  0  0
    0.0120   -1.2361    7.0575 H   0  0  0  0  0  0  0  0  0  0  0  0
    2.0457   -2.4732    7.1331 H   0  0  0  0  0  0  0  0  0  0  0  0
    1.7230    2.0645    6.5065 Si  0  0  0  0  0  4  0  0  0  0  0  0
    1.3585    0.7496    7.1171 H   0  0  0  0  0  0  0  0  0  0  0  0
    2.9014    2.4953    7.3009 H   0  0  0  0  0  0  0  0  0  0  0  0
    0.1126    3.4875    6.9478 Si  0  0  0  0  0  4  0  0  0  0  0  0
   -0.1288    3.4776    8.4022 H   0  0  0  0  0  0  0  0  0  0  0  0
    0.6035    4.8626    6.6392 H   0  0  0  0  0  0  0  0  0  0  0  0
   -0.4971   -4.1423    7.6858 Si  0  0  0  0  0  4  0  0  0  0  0  0
   -1.4588   -4.6870    6.7298 H   0  0  0  0  0  0  0  0  0  0  0  0
    0.4665   -5.1429    8.1525 H   0  0  0  0  0  0  0  0  0  0  0  0
   -1.7830    3.1432    5.9256 Si  0  0  0  0  0  4  0  0  0  0  0  0
   -1.7856    1.9150    5.1287 H   0  0  0  0  0  0  0  0  0  0  0  0
   -2.0970    4.2499    5.0061 H   0  0  0  0  0  0  0  0  0  0  0  0
   -1.6275   -3.3001    9.4377 Si  0  0  0  0  0  4  0  0  0  0  0  0
   -1.7824   -4.3093   10.4936 H   0  0  0  0  0  0  0  0  0  0  0  0
   -0.8236   -2.1742    9.9612 H   0  0  0  0  0  0  0  0  0  0  0  0
   -3.5776   -2.4857    8.7598 Si  0  0  0  0  0  4  0  0  0  0  0  0
   -3.4724   -1.0691    8.3647 H   0  0  0  0  0  0  0  0  0  0  0  0
   -4.1201   -3.2582    7.6436 H   0  0  0  0  0  0  0  0  0  0  0  0
   -4.5517   -2.5405    9.8676 H   0  0  0  0  0  0  0  0  0  0  0  0
   -3.5196    3.0195    7.3586 Si  0  0  0  0  0  4  0  0  0  0  0  0
   -3.4253    1.7470    8.0858 H   0  0  0  0  0  0  0  0  0  0  0  0
   -4.7373    3.0649    6.5299 H   0  0  0  0  0  0  0  0  0  0  0  0
   -3.4716    4.1804    8.2312 H   0  0  0  0  0  0  0  0  0  0  0  0
  1  2  1  0
  1  5  1  0
  2  3  1  0
  2  4  1  0
  2  8  1  0
  5  6  1  0
  5  7  1  0
  5 11  1  0
  8  9  1  0
  8 10  1  0
  8 17  1  0
 11 12  1  0
 11 13  1  0
 11 14  1  0
 14 15  1  0
 14 16  1  0
 14 23  1  0
 17 18  1  0
 17 19  1  0
 17 20  1  0
 20 21  1  0
 20 22  1  0
 20 26  1  0
 23 24  1  0
 23 25  1  0
 23 29  1  0
 26 27  1  0
 26 28  1  0
 26 36  1  0
 29 30  1  0
 29 31  1  0
 29 32  1  0
 32 33  1  0
 32 34  1  0
 32 35  1  0
 36 37  1  0
 36 38  1  0
 36 39  1  0
M  CHG  1   1   1
M  RAD  1   1   2
M  END
$$$$

     RDKit          3D

 39 38  0  0  0  0  0  0  0  0999 V2000
    0.0326    0.0868    2.1782 S   0  0  0  0  0  2  0  0  0  0  0  0
   -1.1979   -1.0864    3.4695 Si  0  0  0  0  0  4  0  0  0  0  0  0
   -2.4092   -0.3115    3.7921 H   0  0  0  0  0  0  0  0  0  0  0  0
   -1.5629   -2.3165    2.7433 H   0  0  0  0  0  0  0  0  0  0  0  0
   -0.6765    2.1115    2.0503 Si  0  0  0  0  0  4  0  0  0  0  0  0
    0.3399    2.9209    1.3815 H   0  0  0  0  0  0  0  0  0  0  0  0
   -1.9162    2.1825    1.2446 H   0  0  0  0  0  0  0  0  0  0  0  0
   -0.1537   -1.5590    5.3941 Si  0  0  0  0  0  4  0  0  0  0  0  0
    0.3162   -2.9733    5.3484 H   0  0  0  0  0  0  0  0  0  0  0  0
    1.0256   -0.7258    5.5014 H   0  0  0  0  0  0  0  0  0  0  0  0
   -1.0616    2.9680    4.0628 Si  0  0  0  0  0  4  0  0  0  0  0  0
   -1.8106    2.0152    4.8977 H   0  0  0  0  0  0  0  0  0  0  0  0
   -1.9292    4.1586    3.8790 H   0  0  0  0  0  0  0  0  0  0  0  0
    0.8491    3.5785    5.0705 Si  0  0  0  0  0  4  0  0  0  0  0  0
    0.5957    3.6993    6.5097 H   0  0  0  0  0  0  0  0  0  0  0  0
    1.1498    4.9533    4.5835 H   0  0  0  0  0  0  0  0  0  0  0  0
   -1.5401   -1.3494    7.0979 Si  0  0  0  0  0  4  0  0  0  0  0  0
   -1.5425   -2.5552    7.9482 H   0  0  0  0  0  0  0  0  0  0  0  0
   -2.9025   -1.1745    6.5827 H   0  0  0  0  0  0  0  0  0  0  0  0
   -1.0628    0.3912    8.3903 Si  0  0  0  0  0  4  0  0  0  0  0  0
    0.0461    0.0680    9.3108 H   0  0  0  0  0  0  0  0  0  0  0  0
   -0.6680    1.5730    7.6366 H   0  0  0  0  0  0  0  0  0  0  0  0
    2.5101    2.2120    4.5879 Si  0  0  0  0  0  4  0  0  0  0  0  0
    1.9687    1.0888    3.7853 H   0  0  0  0  0  0  0  0  0  0  0  0
    3.5347    2.9167    3.8308 H   0  0  0  0  0  0  0  0  0  0  0  0
   -2.8744    0.7987    9.6659 Si  0  0  0  0  0  4  0  0  0  0  0  0
   -2.8360    2.2051   10.0526 H   0  0  0  0  0  0  0  0  0  0  0  0
   -2.8181   -0.0977   10.8431 H   0  0  0  0  0  0  0  0  0  0  0  0
    3.4481    1.3259    6.4039 Si  0  0  0  0  0  4  0  0  0  0  0  0
    2.4442    0.4670    7.0770 H   0  0  0  0  0  0  0  0  0  0  0  0
    4.5125    0.4067    5.9371 H   0  0  0  0  0  0  0  0  0  0  0  0
    4.2704    2.8520    7.7647 Si  0  0  0  0  0  4  0  0  0  0  0  0
    5.6772    2.5011    8.0816 H   0  0  0  0  0  0  0  0  0  0  0  0
    3.5171    2.7844    9.0457 H   0  0  0  0  0  0  0  0  0  0  0  0
    4.2003    4.1840    7.1986 H   0  0  0  0  0  0  0  0  0  0  0  0
   -4.7450    0.2871    8.5504 Si  0  0  0  0  0  4  0  0  0  0  0  0
   -5.7076    1.4105    8.6222 H   0  0  0  0  0  0  0  0  0  0  0  0
   -5.4192   -0.8802    9.1204 H   0  0  0  0  0  0  0  0  0  0  0  0
   -4.4777    0.0086    7.1387 H   0  0  0  0  0  0  0  0  0  0  0  0
  1  2  1  0
  1  5  1  0
  2  3  1  0
  2  4  1  0
  2  8  1  0
  5  6  1  0
  5  7  1  0
  5 11  1  0
  8  9  1  0
  8 10  1  0
  8 17  1  0
 11 12  1  0
 11 13  1  0
 11 14  1  0
 14 15  1  0
 14 16  1  0
 14 23  1  0
 17 18  1  0
 17 19  1  0
 17 20  1  0
 20 21  1  0
 20 22  1  0
 20 26  1  0
 23 24  1  0
 23 25  1  0
 23 29  1  0
 26 27  1  0
 26 28  1  0
 26 36  1  0
 29 30  1  0
 29 31  1  0
 29 32  1  0
 32 33  1  0
 32 34  1  0
 32 35  1  0
 36 37  1  0
 36 38  1  0
 36 39  1  0
M  CHG  1   1   1
M  RAD  1   1   2
M  END
$$$$

     RDKit          3D

 39 38  0  0  0  0  0  0  0  0999 V2000
    0.0326    0.0868    2.1782 S   0  0  0  0  0  2  0  0  0  0  0  0
    1.7466    1.3291    2.4553 Si  0  0  0  0  0  4  0  0  0  0  0  0
    2.8865    0.4753    2.8338 H   0  0  0  0  0  0  0  0  0  0  0  0
    2.0228    2.0024    1.1731 H   0  0  0  0  0  0  0  0  0  0  0  0
    0.3968   -1.9135    2.8744 Si  0  0  0  0  0  4  0  0  0  0  0  0
   -0.8738   -2.6346    2.9092 H   0  0  0  0  0  0  0  0  0  0  0  0
    1.3022   -2.6331    1.9505 H   0  0  0  0  0  0  0  0  0  0  0  0
    1.4272    2.8152    4.1007 Si  0  0  0  0  0  4  0  0  0  0  0  0
    1.1545    4.1495    3.4937 H   0  0  0  0  0  0  0  0  0  0  0  0
    0.2428    2.4399    4.8444 H   0  0  0  0  0  0  0  0  0  0  0  0
    1.2772   -1.9184    4.9133 Si  0  0  0  0  0  4  0  0  0  0  0  0
    2.3667   -0.9339    5.0106 H   0  0  0  0  0  0  0  0  0  0  0  0
    1.8814   -3.2568    5.1318 H   0  0  0  0  0  0  0  0  0  0  0  0
   -0.2849   -1.5342    6.4789 Si  0  0  0  0  0  4  0  0  0  0  0  0
    0.3878   -1.1037    7.7086 H   0  0  0  0  0  0  0  0  0  0  0  0
   -0.8988   -2.8569    6.7808 H   0  0  0  0  0  0  0  0  0  0  0  0
    3.2371    2.9854    5.3513 Si  0  0  0  0  0  4  0  0  0  0  0  0
    3.6619    4.3901    5.5045 H   0  0  0  0  0  0  0  0  0  0  0  0
    4.3353    2.2649    4.6977 H   0  0  0  0  0  0  0  0  0  0  0  0
    2.9660    2.1332    7.3831 Si  0  0  0  0  0  4  0  0  0  0  0  0
    2.2524    3.0864    8.2569 H   0  0  0  0  0  0  0  0  0  0  0  0
    2.2054    0.8914    7.3864 H   0  0  0  0  0  0  0  0  0  0  0  0
   -1.8212   -0.1155    5.7815 Si  0  0  0  0  0  4  0  0  0  0  0  0
   -1.4168    0.3871    4.4463 H   0  0  0  0  0  0  0  0  0  0  0  0
   -3.1136   -0.7801    5.6931 H   0  0  0  0  0  0  0  0  0  0  0  0
    5.0165    1.8419    8.2694 Si  0  0  0  0  0  4  0  0  0  0  0  0
    4.9186    0.7886    9.2745 H   0  0  0  0  0  0  0  0  0  0  0  0
    5.4480    3.1288    8.8610 H   0  0  0  0  0  0  0  0  0  0  0  0
   -2.0210    1.6578    7.1150 Si  0  0  0  0  0  4  0  0  0  0  0  0
   -0.7544    2.4269    7.0631 H   0  0  0  0  0  0  0  0  0  0  0  0
   -3.0490    2.5390    6.5131 H   0  0  0  0  0  0  0  0  0  0  0  0
   -2.5674    1.1103    9.1786 Si  0  0  0  0  0  4  0  0  0  0  0  0
   -3.7465    1.9128    9.5893 H   0  0  0  0  0  0  0  0  0  0  0  0
   -1.4494    1.5092   10.0751 H   0  0  0  0  0  0  0  0  0  0  0  0
   -2.8515   -0.3043    9.3119 H   0  0  0  0  0  0  0  0  0  0  0  0
    6.4943    1.3368    6.6675 Si  0  0  0  0  0  4  0  0  0  0  0  0
    7.2767    0.1392    7.0515 H   0  0  0  0  0  0  0  0  0  0  0  0
    7.4586    2.4169    6.4534 H   0  0  0  0  0  0  0  0  0  0  0  0
    5.8377    1.0588    5.3896 H   0  0  0  0  0  0  0  0  0  0  0  0
  1  2  1  0
  1  5  1  0
  2  3  1  0
  2  4  1  0
  2  8  1  0
  5  6  1  0
  5  7  1  0
  5 11  1  0
  8  9  1  0
  8 10  1  0
  8 17  1  0
 11 12  1  0
 11 13  1  0
 11 14  1  0
 14 15  1  0
 14 16  1  0
 14 23  1  0
 17 18  1  0
 17 19  1  0
 17 20  1  0
 20 21  1  0
 20 22  1  0
 20 26  1  0
 23 24  1  0
 23 25  1  0
 23 29  1  0
 26 27  1  0
 26 28  1  0
 26 36  1  0
 29 30  1  0
 29 31  1  0
 29 32  1  0
 32 33  1  0
 32 34  1  0
 32 35  1  0
 36 37  1  0
 36 38  1  0
 36 39  1  0
M  CHG  1   1   1
M  RAD  1   1   2
M  END
$$$$

     RDKit          3D

 39 38  0  0  0  0  0  0  0  0999 V2000
    0.0326    0.0868    2.1782 S   0  0  0  0  0  2  0  0  0  0  0  0
   -0.5542   -1.5024    3.4775 Si  0  0  0  0  0  4  0  0  0  0  0  0
   -1.9257   -1.2394    3.9479 H   0  0  0  0  0  0  0  0  0  0  0  0
   -0.5179   -2.7535    2.6983 H   0  0  0  0  0  0  0  0  0  0  0  0
   -1.3717    1.7121    2.2482 Si  0  0  0  0  0  4  0  0  0  0  0  0
   -0.7898    2.8621    1.5594 H   0  0  0  0  0  0  0  0  0  0  0  0
   -2.6259    1.3512    1.5496 H   0  0  0  0  0  0  0  0  0  0  0  0
    0.7752   -1.6269    5.2761 Si  0  0  0  0  0  4  0  0  0  0  0  0
    1.7193   -2.7667    5.0950 H   0  0  0  0  0  0  0  0  0  0  0  0
    1.5763   -0.4228    5.3480 H   0  0  0  0  0  0  0  0  0  0  0  0
   -1.8403    2.2938    4.3396 Si  0  0  0  0  0  4  0  0  0  0  0  0
   -2.1059    1.1030    5.1625 H   0  0  0  0  0  0  0  0  0  0  0  0
   -3.0943    3.0878    4.3083 H   0  0  0  0  0  0  0  0  0  0  0  0
   -0.1916    3.5274    5.2336 Si  0  0  0  0  0  4  0  0  0  0  0  0
   -0.3279    3.4946    6.6932 H   0  0  0  0  0  0  0  0  0  0  0  0
   -0.4600    4.9331    4.8215 H   0  0  0  0  0  0  0  0  0  0  0  0
   -0.4168   -2.0033    7.0943 Si  0  0  0  0  0  4  0  0  0  0  0  0
    0.1026   -3.1553    7.8561 H   0  0  0  0  0  0  0  0  0  0  0  0
   -1.7937   -2.3232    6.7017 H   0  0  0  0  0  0  0  0  0  0  0  0
   -0.4782   -0.2570    8.4634 Si  0  0  0  0  0  4  0  0  0  0  0  0
    0.7575   -0.1826    9.2688 H   0  0  0  0  0  0  0  0  0  0  0  0
   -0.6159    1.0136    7.7652 H   0  0  0  0  0  0  0  0  0  0  0  0
    1.7955    2.8858    4.5274 Si  0  0  0  0  0  4  0  0  0  0  0  0
    1.6220    1.6719    3.6936 H   0  0  0  0  0  0  0  0  0  0  0  0
    2.4143    3.9447    3.7429 H   0  0  0  0  0  0  0  0  0  0  0  0
   -2.1785   -0.5904    9.9031 Si  0  0  0  0  0  4  0  0  0  0  0  0
   -2.6150    0.7168   10.3828 H   0  0  0  0  0  0  0  0  0  0  0  0
   -1.6847   -1.4450   11.0068 H   0  0  0  0  0  0  0  0  0  0  0  0
    3.1659    2.3419    6.1975 Si  0  0  0  0  0  4  0  0  0  0  0  0
    2.6139    1.1504    6.8861 H   0  0  0  0  0  0  0  0  0  0  0  0
    4.4394    1.8959    5.5853 H   0  0  0  0  0  0  0  0  0  0  0  0
    3.5086    4.0133    7.5924 Si  0  0  0  0  0  4  0  0  0  0  0  0
    4.9709    4.1932    7.7721 H   0  0  0  0  0  0  0  0  0  0  0  0
    2.9618    3.6274    8.9209 H   0  0  0  0  0  0  0  0  0  0  0  0
    2.9044    5.2457    7.1278 H   0  0  0  0  0  0  0  0  0  0  0  0
   -3.8366   -1.7134    8.9057 Si  0  0  0  0  0  4  0  0  0  0  0  0
   -5.1290   -1.0261    9.1314 H   0  0  0  0  0  0  0  0  0  0  0  0
   -3.9813   -3.0666    9.4443 H   0  0  0  0  0  0  0  0  0  0  0  0
   -3.6275   -1.8231    7.4614 H   0  0  0  0  0  0  0  0  0  0  0  0
  1  2  1  0
  1  5  1  0
  2  3  1  0
  2  4  1  0
  2  8  1  0
  5  6  1  0
  5  7  1  0
  5 11  1  0
  8  9  1  0
  8 10  1  0
  8 17  1  0
 11 12  1  0
 11 13  1  0
 11 14  1  0
 14 15  1  0
 14 16  1  0
 14 23  1  0
 17 18  1  0
 17 19  1  0
 17 20  1  0
 20 21  1  0
 20 22  1  0
 20 26  1  0
 23 24  1  0
 23 25  1  0
 23 29  1  0
 26 27  1  0
 26 28  1  0
 26 36  1  0
 29 30  1  0
 29 31  1  0
 29 32  1  0
 32 33  1  0
 32 34  1  0
 32 35  1  0
 36 37  1  0
 36 38  1  0
 36 39  1  0
M  CHG  1   1   1
M  RAD  1   1   2
M  END
$$$$
