
     RDKit          3D

 39 38  0  0  0  0  0  0  0  0999 V2000
   -0.0390   -0.0729    3.2138 S   0  0  0  0  0  2  0  0  0  0  0  0
    1.5006   -1.4426    3.7517 Si  0  0  0  0  0  4  0  0  0  0  0  0
    2.4611   -1.5155    2.6362 H   0  0  0  0  0  0  0  0  0  0  0  0
    0.9959   -2.8041    3.9670 H   0  0  0  0  0  0  0  0  0  0  0  0
   -1.7215   -0.1890    4.5393 Si  0  0  0  0  0  4  0  0  0  0  0  0
   -2.6389    0.9021    4.2361 H   0  0  0  0  0  0  0  0  0  0  0  0
   -2.4583   -1.4511    4.3629 H   0  0  0  0  0  0  0  0  0  0  0  0
    2.6031   -0.8109    5.5671 Si  0  0  0  0  0  4  0  0  0  0  0  0
    3.4779   -1.9262    5.9822 H   0  0  0  0  0  0  0  0  0  0  0  0
    1.7235   -0.5149    6.6953 H   0  0  0  0  0  0  0  0  0  0  0  0
   -1.0410    0.0091    6.6345 Si  0  0  0  0  0  4  0  0  0  0  0  0
   -0.5159   -1.2890    7.0771 H   0  0  0  0  0  0  0  0  0  0  0  0
   -0.0645    1.0858    6.7358 H   0  0  0  0  0  0  0  0  0  0  0  0
   -2.7438    0.5179    8.0124 Si  0  0  0  0  0  4  0  0  0  0  0  0
   -3.7935   -0.4815    7.9672 H   0  0  0  0  0  0  0  0  0  0  0  0
   -3.3205    1.8048    7.5981 H   0  0  0  0  0  0  0  0  0  0  0  0
    3.8622    0.9955    5.1959 Si  0  0  0  0  0  4  0  0  0  0  0  0
    4.4439    0.9865    3.8428 H   0  0  0  0  0  0  0  0  0  0  0  0
    4.9654    0.9646    6.1762 H   0  0  0  0  0  0  0  0  0  0  0  0
    2.5741    2.7965    5.4675 Si  0  0  0  0  0  4  0  0  0  0  0  0
    3.2362    3.9125    4.7461 H   0  0  0  0  0  0  0  0  0  0  0  0
    1.2884    2.5190    4.7962 H   0  0  0  0  0  0  0  0  0  0  0  0
   -1.8829    0.7730   10.0559 Si  0  0  0  0  0  4  0  0  0  0  0  0
   -2.8935    1.2398   11.0207 H   0  0  0  0  0  0  0  0  0  0  0  0
   -0.8790    1.8716    9.9607 H   0  0  0  0  0  0  0  0  0  0  0  0
    2.2825    3.3077    7.5964 Si  0  0  0  0  0  4  0  0  0  0  0  0
    0.8440    3.5375    7.8302 H   0  0  0  0  0  0  0  0  0  0  0  0
    2.9504    4.6050    7.8737 H   0  0  0  0  0  0  0  0  0  0  0  0
   -0.8473   -1.0354   10.7690 Si  0  0  0  0  0  4  0  0  0  0  0  0
    0.6213   -0.9677   10.5577 H   0  0  0  0  0  0  0  0  0  0  0  0
   -1.0269   -1.1290   12.2417 H   0  0  0  0  0  0  0  0  0  0  0  0
   -1.6087   -2.9024    9.8710 Si  0  0  0  0  0  4  0  0  0  0  0  0
   -1.7248   -2.8615    8.4287 H   0  0  0  0  0  0  0  0  0  0  0  0
   -0.6420   -3.9895   10.1989 H   0  0  0  0  0  0  0  0  0  0  0  0
   -2.8985   -3.3300   10.4253 H   0  0  0  0  0  0  0  0  0  0  0  0
    2.9983    1.7254    8.9715 Si  0  0  0  0  0  4  0  0  0  0  0  0
    3.4311    0.5169    8.2769 H   0  0  0  0  0  0  0  0  0  0  0  0
    1.9255    1.3321    9.9120 H   0  0  0  0  0  0  0  0  0  0  0  0
    4.1393    2.2575    9.7476 H   0  0  0  0  0  0  0  0  0  0  0  0
  1  2  1  0
  1  5  1  0
  2  3  1  0
  2  4  1  0
  2  8  1  0
  5  6  1  0
  5  7  1  0
  5 11  1  0
  8  9  1  0
  8 10  1  0
  8 17  1  0
 11 12  1  0
 11 13  1  0
 11 14  1  0
 14 15  1  0
 14 16  1  0
 14 23  1  0
 17 18  1  0
 17 19  1  0
 17 20  1  0
 20 21  1  0
 20 22  1  0
 20 26  1  0
 23 24  1  0
 23 25  1  0
 23 29  1  0
 26 27  1  0
 26 28  1  0
 26 36  1  0
 29 30  1  0
 29 31  1  0
 29 32  1  0
 32 33  1  0
 32 34  1  0
 32 35  1  0
 36 37  1  0
 36 38  1  0
 36 39  1  0
M  CHG  1   1   1
M  RAD  1   1   2
M  END
$$$$

     RDKit          3D

 39 38  0  0  0  0  0  0  0  0999 V2000
   -0.0390   -0.0729    3.2138 S   0  0  0  0  0  2  0  0  0  0  0  0
   -0.2016   -2.1458    3.6746 Si  0  0  0  0  0  4  0  0  0  0  0  0
    0.2902   -2.9138    2.5168 H   0  0  0  0  0  0  0  0  0  0  0  0
   -1.5890   -2.5665    3.9047 H   0  0  0  0  0  0  0  0  0  0  0  0
   -1.1098    1.1511    4.6126 Si  0  0  0  0  0  4  0  0  0  0  0  0
   -0.7924    2.5503    4.3569 H   0  0  0  0  0  0  0  0  0  0  0  0
   -2.5654    0.9909    4.4623 H   0  0  0  0  0  0  0  0  0  0  0  0
    1.0049   -2.7200    5.4424 Si  0  0  0  0  0  4  0  0  0  0  0  0
    0.6450   -4.1041    5.8116 H   0  0  0  0  0  0  0  0  0  0  0  0
    0.7403   -1.8835    6.6104 H   0  0  0  0  0  0  0  0  0  0  0  0
   -0.4968    0.6435    6.6764 Si  0  0  0  0  0  4  0  0  0  0  0  0
   -1.2118   -0.5716    7.0877 H   0  0  0  0  0  0  0  0  0  0  0  0
    0.9521    0.5038    6.7398 H   0  0  0  0  0  0  0  0  0  0  0  0
   -1.0784    2.2560    8.1319 Si  0  0  0  0  0  4  0  0  0  0  0  0
   -2.5080    2.4984    8.1281 H   0  0  0  0  0  0  0  0  0  0  0  0
   -0.4027    3.5045    7.7510 H   0  0  0  0  0  0  0  0  0  0  0  0
    3.1967   -2.6299    5.0252 Si  0  0  0  0  0  4  0  0  0  0  0  0
    3.5076   -3.0475    3.6474 H   0  0  0  0  0  0  0  0  0  0  0  0
    3.8545   -3.5691    5.9550 H   0  0  0  0  0  0  0  0  0  0  0  0
    3.8733   -0.5314    5.3643 Si  0  0  0  0  0  4  0  0  0  0  0  0
    5.1472   -0.3639    4.6202 H   0  0  0  0  0  0  0  0  0  0  0  0
    2.8662    0.3567    4.7496 H   0  0  0  0  0  0  0  0  0  0  0  0
   -0.3129    1.6404   10.1362 Si  0  0  0  0  0  4  0  0  0  0  0  0
   -0.5228    2.6904   11.1478 H   0  0  0  0  0  0  0  0  0  0  0  0
    1.1656    1.4997   10.0023 H   0  0  0  0  0  0  0  0  0  0  0  0
    4.1556   -0.0754    7.5069 Si  0  0  0  0  0  4  0  0  0  0  0  0
    3.4834    1.2035    7.8061 H   0  0  0  0  0  0  0  0  0  0  0  0
    5.6003    0.1571    7.7613 H   0  0  0  0  0  0  0  0  0  0  0  0
   -1.1247   -0.2993   10.7921 Si  0  0  0  0  0  4  0  0  0  0  0  0
   -0.1958   -1.4248   10.5157 H   0  0  0  0  0  0  0  0  0  0  0  0
   -1.2743   -0.2694   12.2708 H   0  0  0  0  0  0  0  0  0  0  0  0
   -3.0954   -0.7739    9.9187 Si  0  0  0  0  0  4  0  0  0  0  0  0
   -3.1644   -0.6001    8.4832 H   0  0  0  0  0  0  0  0  0  0  0  0
   -3.3796   -2.2112   10.1969 H   0  0  0  0  0  0  0  0  0  0  0  0
   -4.1976   -0.0204   10.5277 H   0  0  0  0  0  0  0  0  0  0  0  0
    3.3481   -1.6497    8.8397 Si  0  0  0  0  0  4  0  0  0  0  0  0
    2.6242   -2.6927    8.1197 H   0  0  0  0  0  0  0  0  0  0  0  0
    2.4119   -1.0644    9.8251 H   0  0  0  0  0  0  0  0  0  0  0  0
    4.4746   -2.2737    9.5670 H   0  0  0  0  0  0  0  0  0  0  0  0
  1  2  1  0
  1  5  1  0
  2  3  1  0
  2  4  1  0
  2  8  1  0
  5  6  1  0
  5  7  1  0
  5 11  1  0
  8  9  1  0
  8 10  1  0
  8 17  1  0
 11 12  1  0
 11 13  1  0
 11 14  1  0
 14 15  1  0
 14 16  1  0
 14 23  1  0
 17 18  1  0
 17 19  1  0
 17 20  1  0
 20 21  1  0
 20 22  1  0
 20 26  1  0
 23 24  1  0
 23 25  1  0
 23 29  1  0
 26 27  1  0
 26 28  1  0
 26 36  1  0
 29 30  1  0
 29 31  1  0
 29 32  1  0
 32 33  1  0
 32 34  1  0
 32 35  1  0
 36 37  1  0
 36 38  1  0
 36 39  1  0
M  CHG  1   1   1
M  RAD  1   1   2
M  END
$$$$

     RDKit          3D

 39 38  0  0  0  0  0  0  0  0999 V2000
   -0.0390   -0.0729    3.2138 S   0  0  0  0  0  2  0  0  0  0  0  0
   -1.1016   -1.3653    4.5156 Si  0  0  0  0  0  4  0  0  0  0  0  0
   -0.2939   -1.8661    5.6236 H   0  0  0  0  0  0  0  0  0  0  0  0
   -1.5298   -2.5525    3.7313 H   0  0  0  0  0  0  0  0  0  0  0  0
    0.4100    1.8022    4.1124 Si  0  0  0  0  0  4  0  0  0  0  0  0
   -0.3319    1.9568    5.3695 H   0  0  0  0  0  0  0  0  0  0  0  0
    0.0089    2.8654    3.1532 H   0  0  0  0  0  0  0  0  0  0  0  0
   -2.9346   -0.4312    5.3528 Si  0  0  0  0  0  4  0  0  0  0  0  0
   -3.9462   -0.2884    4.2762 H   0  0  0  0  0  0  0  0  0  0  0  0
   -2.6847    0.8422    5.9933 H   0  0  0  0  0  0  0  0  0  0  0  0
    2.6209    2.0329    4.4454 Si  0  0  0  0  0  4  0  0  0  0  0  0
    3.3755    1.1835    3.5251 H   0  0  0  0  0  0  0  0  0  0  0  0
    3.0131    3.4218    4.1559 H   0  0  0  0  0  0  0  0  0  0  0  0
    3.0464    1.6197    6.5739 Si  0  0  0  0  0  4  0  0  0  0  0  0
    4.3765    2.1684    6.9263 H   0  0  0  0  0  0  0  0  0  0  0  0
    2.0678    2.3653    7.3833 H   0  0  0  0  0  0  0  0  0  0  0  0
   -3.8149   -1.8533    6.8572 Si  0  0  0  0  0  4  0  0  0  0  0  0
   -5.2773   -1.8705    6.7554 H   0  0  0  0  0  0  0  0  0  0  0  0
   -3.3484   -3.2219    6.5351 H   0  0  0  0  0  0  0  0  0  0  0  0
   -3.1280   -1.3653    8.9132 Si  0  0  0  0  0  4  0  0  0  0  0  0
   -3.9733   -2.1094    9.8595 H   0  0  0  0  0  0  0  0  0  0  0  0
   -1.7180   -1.7212    9.0635 H   0  0  0  0  0  0  0  0  0  0  0  0
    2.8655   -0.5199    7.1049 Si  0  0  0  0  0  4  0  0  0  0  0  0
    1.4565   -0.9131    6.9758 H   0  0  0  0  0  0  0  0  0  0  0  0
    3.2170   -0.6546    8.5288 H   0  0  0  0  0  0  0  0  0  0  0  0
   -3.3405    0.8087    9.3610 Si  0  0  0  0  0  4  0  0  0  0  0  0
   -3.2784    0.9941   10.8228 H   0  0  0  0  0  0  0  0  0  0  0  0
   -4.6266    1.3065    8.8664 H   0  0  0  0  0  0  0  0  0  0  0  0
    4.1786   -1.8478    5.9369 Si  0  0  0  0  0  4  0  0  0  0  0  0
    5.5764   -1.6942    6.3870 H   0  0  0  0  0  0  0  0  0  0  0  0
    3.7887   -3.2398    6.2145 H   0  0  0  0  0  0  0  0  0  0  0  0
    4.0967   -1.5165    3.7615 Si  0  0  0  0  0  4  0  0  0  0  0  0
    4.5006   -2.7699    3.0676 H   0  0  0  0  0  0  0  0  0  0  0  0
    5.1054   -0.4972    3.3905 H   0  0  0  0  0  0  0  0  0  0  0  0
    2.7767   -1.1658    3.2685 H   0  0  0  0  0  0  0  0  0  0  0  0
   -1.6170    1.9147    8.4721 Si  0  0  0  0  0  4  0  0  0  0  0  0
   -0.8519    2.6395    9.4816 H   0  0  0  0  0  0  0  0  0  0  0  0
   -0.6874    0.9684    7.8186 H   0  0  0  0  0  0  0  0  0  0  0  0
   -2.0815    2.8464    7.4440 H   0  0  0  0  0  0  0  0  0  0  0  0
  1  2  1  0
  1  5  1  0
  2  3  1  0
  2  4  1  0
  2  8  1  0
  5  6  1  0
  5  7  1  0
  5 11  1  0
  8  9  1  0
  8 10  1  0
  8 17  1  0
 11 12  1  0
 11 13  1  0
 11 14  1  0
 14 15  1  0
 14 16  1  0
 14 23  1  0
 17 18  1  0
 17 19  1  0
 17 20  1  0
 20 21  1  0
 20 22  1  0
 20 26  1  0
 23 24  1  0
 23 25  1  0
 23 29  1  0
 26 27  1  0
 26 28  1  0
 26 36  1  0
 29 30  1  0
 29 31  1  0
 29 32  1  0
 32 33  1  0
 32 34  1  0
 32 35  1  0
 36 37  1  0
 36 38  1  0
 36 39  1  0
M  CHG  1   1   1
M  RAD  1   1   2
M  END
$$$$

     RDKit          3D

 39 38  0  0  0  0  0  0  0  0999 V2000
   -0.0390   -0.0729    3.2138 S   0  0  0  0  0  2  0  0  0  0  0  0
    1.9828    0.1810    3.8333 Si  0  0  0  0  0  4  0  0  0  0  0  0
    2.7175    0.8461    2.7424 H   0  0  0  0  0  0  0  0  0  0  0  0
    2.6613   -1.0960    4.0852 H   0  0  0  0  0  0  0  0  0  0  0  0
   -1.1176   -1.4033    4.5052 Si  0  0  0  0  0  4  0  0  0  0  0  0
   -2.5291   -1.3728    4.1438 H   0  0  0  0  0  0  0  0  0  0  0  0
   -0.6508   -2.7916    4.3572 H   0  0  0  0  0  0  0  0  0  0  0  0
    2.1631    1.4382    5.6492 Si  0  0  0  0  0  4  0  0  0  0  0  0
    3.5601    1.3603    6.1223 H   0  0  0  0  0  0  0  0  0  0  0  0
    1.3141    0.9812    6.7466 H   0  0  0  0  0  0  0  0  0  0  0  0
   -0.9023   -0.7475    6.6067 Si  0  0  0  0  0  4  0  0  0  0  0  0
    0.3995   -1.2083    7.1060 H   0  0  0  0  0  0  0  0  0  0  0  0
   -1.0686    0.6976    6.6914 H   0  0  0  0  0  0  0  0  0  0  0  0
   -2.4649   -1.6799    7.9281 Si  0  0  0  0  0  4  0  0  0  0  0  0
   -2.4073   -3.1284    7.8949 H   0  0  0  0  0  0  0  0  0  0  0  0
   -3.7937   -1.2650    7.4561 H   0  0  0  0  0  0  0  0  0  0  0  0
    1.6558    3.5743    5.2423 Si  0  0  0  0  0  4  0  0  0  0  0  0
    2.1022    3.9958    3.9035 H   0  0  0  0  0  0  0  0  0  0  0  0
    2.3676    4.3885    6.2471 H   0  0  0  0  0  0  0  0  0  0  0  0
   -0.5563    3.7997    5.4220 Si  0  0  0  0  0  4  0  0  0  0  0  0
   -0.9261    5.0293    4.6765 H   0  0  0  0  0  0  0  0  0  0  0  0
   -1.1701    2.6469    4.7328 H   0  0  0  0  0  0  0  0  0  0  0  0
   -2.1712   -0.8513    9.9797 Si  0  0  0  0  0  4  0  0  0  0  0  0
   -3.2281   -1.2948   10.9050 H   0  0  0  0  0  0  0  0  0  0  0  0
   -2.3278    0.6274    9.8680 H   0  0  0  0  0  0  0  0  0  0  0  0
   -1.2193    3.9332    7.5246 Si  0  0  0  0  0  4  0  0  0  0  0  0
   -2.3513    3.0071    7.7186 H   0  0  0  0  0  0  0  0  0  0  0  0
   -1.7621    5.2936    7.7707 H   0  0  0  0  0  0  0  0  0  0  0  0
   -0.1606   -1.2644   10.7786 Si  0  0  0  0  0  4  0  0  0  0  0  0
    0.7674   -0.1190   10.5974 H   0  0  0  0  0  0  0  0  0  0  0  0
   -0.2694   -1.4511   12.2494 H   0  0  0  0  0  0  0  0  0  0  0  0
    0.7728   -3.0758    9.9303 Si  0  0  0  0  0  4  0  0  0  0  0  0
    0.7246   -3.1456    8.4853 H   0  0  0  0  0  0  0  0  0  0  0  0
    2.2130   -3.0665   10.3175 H   0  0  0  0  0  0  0  0  0  0  0  0
    0.2187   -4.3225   10.4708 H   0  0  0  0  0  0  0  0  0  0  0  0
    0.3835    3.4339    8.9700 Si  0  0  0  0  0  4  0  0  0  0  0  0
    1.6038    2.9554    8.3281 H   0  0  0  0  0  0  0  0  0  0  0  0
   -0.0688    2.3753    9.9000 H   0  0  0  0  0  0  0  0  0  0  0  0
    0.7064    4.6471    9.7518 H   0  0  0  0  0  0  0  0  0  0  0  0
  1  2  1  0
  1  5  1  0
  2  3  1  0
  2  4  1  0
  2  8  1  0
  5  6  1  0
  5  7  1  0
  5 11  1  0
  8  9  1  0
  8 10  1  0
  8 17  1  0
 11 12  1  0
 11 13  1  0
 11 14  1  0
 14 15  1  0
 14 16  1  0
 14 23  1  0
 17 18  1  0
 17 19  1  0
 17 20  1  0
 20 21  1  0
 20 22  1  0
 20 26  1  0
 23 24  1  0
 23 25  1  0
 23 29  1  0
 26 27  1  0
 26 28  1  0
 26 36  1  0
 29 30  1  0
 29 31  1  0
 29 32  1  0
 32 33  1  0
 32 34  1  0
 32 35  1  0
 36 37  1  0
 36 38  1  0
 36 39  1  0
M  CHG  1   1   1
M  RAD  1   1   2
M  END
$$$$

     RDKit          3D

 39 38  0  0  0  0  0  0  0  0999 V2000
   -0.0390   -0.0729    3.2138 S   0  0  0  0  0  2  0  0  0  0  0  0
    1.8147   -0.9549    3.7809 Si  0  0  0  0  0  4  0  0  0  0  0  0
    2.7715   -0.7635    2.6764 H   0  0  0  0  0  0  0  0  0  0  0  0
    1.7074   -2.4018    4.0038 H   0  0  0  0  0  0  0  0  0  0  0  0
   -1.6391   -0.6460    4.5224 Si  0  0  0  0  0  4  0  0  0  0  0  0
   -2.8206    0.1436    4.1992 H   0  0  0  0  0  0  0  0  0  0  0  0
   -1.9919   -2.0648    4.3502 H   0  0  0  0  0  0  0  0  0  0  0  0
    2.6737   -0.0293    5.6019 Si  0  0  0  0  0  4  0  0  0  0  0  0
    3.8196   -0.8535    6.0368 H   0  0  0  0  0  0  0  0  0  0  0  0
    1.7320    0.0161    6.7178 H   0  0  0  0  0  0  0  0  0  0  0  0
   -1.0678   -0.2529    6.6228 Si  0  0  0  0  0  4  0  0  0  0  0  0
   -0.2070   -1.3500    7.0831 H   0  0  0  0  0  0  0  0  0  0  0  0
   -0.4320    1.0542    6.7242 H   0  0  0  0  0  0  0  0  0  0  0  0
   -2.8625   -0.2314    7.9777 Si  0  0  0  0  0  4  0  0  0  0  0  0
   -3.5908   -1.4844    7.9308 H   0  0  0  0  0  0  0  0  0  0  0  0
   -3.7701    0.8407    7.5451 H   0  0  0  0  0  0  0  0  0  0  0  0
    3.3831    2.0545    5.2269 Si  0  0  0  0  0  4  0  0  0  0  0  0
    3.9616    2.1999    3.8802 H   0  0  0  0  0  0  0  0  0  0  0  0
    4.4385    2.3389    6.2191 H   0  0  0  0  0  0  0  0  0  0  0  0
    1.6402    3.4258    5.4678 Si  0  0  0  0  0  4  0  0  0  0  0  0
    1.9737    4.6779    4.7429 H   0  0  0  0  0  0  0  0  0  0  0  0
    0.4917    2.7962    4.7855 H   0  0  0  0  0  0  0  0  0  0  0  0
   -2.1333    0.2666   10.0277 Si  0  0  0  0  0  4  0  0  0  0  0  0
   -3.2463    0.4384   10.9772 H   0  0  0  0  0  0  0  0  0  0  0  0
   -1.4749    1.6011    9.9327 H   0  0  0  0  0  0  0  0  0  0  0  0
    1.1903    3.8483    7.5885 Si  0  0  0  0  0  4  0  0  0  0  0  0
   -0.2581    3.6688    7.8049 H   0  0  0  0  0  0  0  0  0  0  0  0
    1.4658    5.2822    7.8606 H   0  0  0  0  0  0  0  0  0  0  0  0
   -0.6433   -1.1764   10.7688 Si  0  0  0  0  0  4  0  0  0  0  0  0
    0.7506   -0.7026   10.5724 H   0  0  0  0  0  0  0  0  0  0  0  0
   -0.8085   -1.3074   12.2403 H   0  0  0  0  0  0  0  0  0  0  0  0
   -0.8417   -3.1872    9.8805 Si  0  0  0  0  0  4  0  0  0  0  0  0
   -0.9461   -3.1892    8.4367 H   0  0  0  0  0  0  0  0  0  0  0  0
    0.3857   -3.9592   10.2289 H   0  0  0  0  0  0  0  0  0  0  0  0
   -1.9679   -3.9545   10.4251 H   0  0  0  0  0  0  0  0  0  0  0  0
    2.3016    2.5373    8.9861 Si  0  0  0  0  0  4  0  0  0  0  0  0
    3.0634    1.4934    8.3076 H   0  0  0  0  0  0  0  0  0  0  0  0
    1.3692    1.8658    9.9188 H   0  0  0  0  0  0  0  0  0  0  0  0
    3.2386    3.3715    9.7692 H   0  0  0  0  0  0  0  0  0  0  0  0
  1  2  1  0
  1  5  1  0
  2  3  1  0
  2  4  1  0
  2  8  1  0
  5  6  1  0
  5  7  1  0
  5 11  1  0
  8  9  1  0
  8 10  1  0
  8 17  1  0
 11 12  1  0
 11 13  1  0
 11 14  1  0
 14 15  1  0
 14 16  1  0
 14 23  1  0
 17 18  1  0
 17 19  1  0
 17 20  1  0
 20 21  1  0
 20 22  1  0
 20 26  1  0
 23 24  1  0
 23 25  1  0
 23 29  1  0
 26 27  1  0
 26 28  1  0
 26 36  1  0
 29 30  1  0
 29 31  1  0
 29 32  1  0
 32 33  1  0
 32 34  1  0
 32 35  1  0
 36 37  1  0
 36 38  1  0
 36 39  1  0
M  CHG  1   1   1
M  RAD  1   1   2
M  END
$$$$
