
     RDKit          3D

 39 38  0  0  0  0  0  0  0  0999 V2000
   -0.0744   -0.0794   -4.3578 S   0  0  0  0  0  2  0  0  0  0  0  0
   -0.8625    1.5930   -5.4770 Si  0  0  0  0  0  4  0  0  0  0  0  0
   -1.0153    2.7020   -4.4978 H   0  0  0  0  0  0  0  0  0  0  0  0
    0.0932    2.0468   -6.4804 H   0  0  0  0  0  0  0  0  0  0  0  0
    1.7482   -0.7944   -5.2376 Si  0  0  0  0  0  4  0  0  0  0  0  0
    2.7033    0.2942   -5.4533 H   0  0  0  0  0  0  0  0  0  0  0  0
    2.3548   -1.7327   -4.2747 H   0  0  0  0  0  0  0  0  0  0  0  0
   -2.8280    1.0324   -6.3193 Si  0  0  0  0  0  4  0  0  0  0  0  0
   -3.1187   -0.3877   -6.1156 H   0  0  0  0  0  0  0  0  0  0  0  0
   -3.8926    1.7840   -5.6026 H   0  0  0  0  0  0  0  0  0  0  0  0
    1.2507   -1.8823   -7.1077 Si  0  0  0  0  0  4  0  0  0  0  0  0
   -0.0225   -1.3412   -7.6220 H   0  0  0  0  0  0  0  0  0  0  0  0
    1.0970   -3.3334   -6.8875 H   0  0  0  0  0  0  0  0  0  0  0  0
    2.8069   -1.5386   -8.6806 Si  0  0  0  0  0  4  0  0  0  0  0  0
    3.9345   -2.4662   -8.5390 H   0  0  0  0  0  0  0  0  0  0  0  0
    2.1629   -1.8308   -9.9834 H   0  0  0  0  0  0  0  0  0  0  0  0
   -3.0083    1.4897   -8.4752 Si  0  0  0  0  0  4  0  0  0  0  0  0
   -4.0816    0.6422   -9.0456 H   0  0  0  0  0  0  0  0  0  0  0  0
   -3.4957    2.8878   -8.6030 H   0  0  0  0  0  0  0  0  0  0  0  0
   -1.1333    1.2279   -9.5896 Si  0  0  0  0  0  4  0  0  0  0  0  0
   -0.9769    2.3708  -10.5345 H   0  0  0  0  0  0  0  0  0  0  0  0
    0.0406    1.2966   -8.6934 H   0  0  0  0  0  0  0  0  0  0  0  0
    3.4819    0.5938   -8.6562 Si  0  0  0  0  0  4  0  0  0  0  0  0
    2.5038    1.3509   -7.8644 H   0  0  0  0  0  0  0  0  0  0  0  0
    4.7944    0.6862   -7.9902 H   0  0  0  0  0  0  0  0  0  0  0  0
   -1.0348   -0.6381  -10.7518 Si  0  0  0  0  0  4  0  0  0  0  0  0
   -0.2404   -1.6538  -10.0427 H   0  0  0  0  0  0  0  0  0  0  0  0
   -0.3455   -0.4114  -12.0487 H   0  0  0  0  0  0  0  0  0  0  0  0
    3.5716    1.3953  -10.7409 Si  0  0  0  0  0  4  0  0  0  0  0  0
    2.4312    0.8320  -11.4855 H   0  0  0  0  0  0  0  0  0  0  0  0
    4.8251    0.9453  -11.3791 H   0  0  0  0  0  0  0  0  0  0  0  0
    3.4248    3.6141  -10.7650 Si  0  0  0  0  0  4  0  0  0  0  0  0
    2.6275    4.0109  -11.9298 H   0  0  0  0  0  0  0  0  0  0  0  0
    4.7690    4.2063  -10.8600 H   0  0  0  0  0  0  0  0  0  0  0  0
    2.7970    4.1323   -9.5474 H   0  0  0  0  0  0  0  0  0  0  0  0
   -3.0253   -1.5036  -11.1943 Si  0  0  0  0  0  4  0  0  0  0  0  0
   -2.8259   -2.9537  -11.4803 H   0  0  0  0  0  0  0  0  0  0  0  0
   -3.9515   -1.4270  -10.0727 H   0  0  0  0  0  0  0  0  0  0  0  0
   -3.6198   -0.9421  -12.4303 H   0  0  0  0  0  0  0  0  0  0  0  0
  1  2  1  0
  1  5  1  0
  2  3  1  0
  2  4  1  0
  2  8  1  0
  5  6  1  0
  5  7  1  0
  5 11  1  0
  8  9  1  0
  8 10  1  0
  8 17  1  0
 11 12  1  0
 11 13  1  0
 11 14  1  0
 14 15  1  0
 14 16  1  0
 14 23  1  0
 17 18  1  0
 17 19  1  0
 17 20  1  0
 20 21  1  0
 20 22  1  0
 20 26  1  0
 23 24  1  0
 23 25  1  0
 23 29  1  0
 26 27  1  0
 26 28  1  0
 26 36  1  0
 29 30  1  0
 29 31  1  0
 29 32  1  0
 32 33  1  0
 32 34  1  0
 32 35  1  0
 36 37  1  0
 36 38  1  0
 36 39  1  0
M  CHG  1   1   1
M  RAD  1   1   2
M  END
$$$$

     RDKit          3D

 39 38  0  0  0  0  0  0  0  0999 V2000
   -0.0744   -0.0794   -4.3578 S   0  0  0  0  0  2  0  0  0  0  0  0
   -0.5201   -2.1653   -4.7419 Si  0  0  0  0  0  4  0  0  0  0  0  0
    0.5813   -2.9328   -4.0934 H   0  0  0  0  0  0  0  0  0  0  0  0
   -1.8141   -2.5428   -4.2118 H   0  0  0  0  0  0  0  0  0  0  0  0
    1.5365    0.4425   -5.7142 Si  0  0  0  0  0  4  0  0  0  0  0  0
    1.6340   -0.5113   -6.8100 H   0  0  0  0  0  0  0  0  0  0  0  0
    2.7862    0.2964   -4.9127 H   0  0  0  0  0  0  0  0  0  0  0  0
   -0.3585   -2.4773   -6.9442 Si  0  0  0  0  0  4  0  0  0  0  0  0
    0.8823   -3.2178   -7.2824 H   0  0  0  0  0  0  0  0  0  0  0  0
   -0.2668   -1.1913   -7.6709 H   0  0  0  0  0  0  0  0  0  0  0  0
    1.3187    2.4994   -6.4783 Si  0  0  0  0  0  4  0  0  0  0  0  0
    2.2961    3.3641   -5.7589 H   0  0  0  0  0  0  0  0  0  0  0  0
   -0.0180    3.0474   -6.1228 H   0  0  0  0  0  0  0  0  0  0  0  0
    1.6843    2.6879   -8.6409 Si  0  0  0  0  0  4  0  0  0  0  0  0
    2.8823    3.5213   -8.9180 H   0  0  0  0  0  0  0  0  0  0  0  0
    0.5439    3.4111   -9.2708 H   0  0  0  0  0  0  0  0  0  0  0  0
   -2.1635   -3.5366   -7.7448 Si  0  0  0  0  0  4  0  0  0  0  0  0
   -2.0906   -4.9579   -7.4432 H   0  0  0  0  0  0  0  0  0  0  0  0
   -2.1265   -3.3809   -9.2163 H   0  0  0  0  0  0  0  0  0  0  0  0
   -3.9726   -2.5588   -6.9010 Si  0  0  0  0  0  4  0  0  0  0  0  0
   -5.0194   -3.5892   -6.7729 H   0  0  0  0  0  0  0  0  0  0  0  0
   -3.6550   -2.0495   -5.5685 H   0  0  0  0  0  0  0  0  0  0  0  0
    1.9278    0.7611   -9.6795 Si  0  0  0  0  0  4  0  0  0  0  0  0
    3.3023    0.6186  -10.2392 H   0  0  0  0  0  0  0  0  0  0  0  0
    1.6844   -0.4023   -8.8464 H   0  0  0  0  0  0  0  0  0  0  0  0
   -4.7553   -0.9562   -8.2225 Si  0  0  0  0  0  4  0  0  0  0  0  0
   -4.8579   -1.4432   -9.5949 H   0  0  0  0  0  0  0  0  0  0  0  0
   -6.0550   -0.5212   -7.6865 H   0  0  0  0  0  0  0  0  0  0  0  0
    0.5376    0.6056  -11.4486 Si  0  0  0  0  0  4  0  0  0  0  0  0
    0.2169    1.9261  -11.9790 H   0  0  0  0  0  0  0  0  0  0  0  0
   -0.7143   -0.0209  -11.0075 H   0  0  0  0  0  0  0  0  0  0  0  0
    1.4464   -0.7215  -13.0023 Si  0  0  0  0  0  4  0  0  0  0  0  0
    0.4266   -1.6258  -13.5770 H   0  0  0  0  0  0  0  0  0  0  0  0
    1.9594    0.1255  -14.0937 H   0  0  0  0  0  0  0  0  0  0  0  0
    2.5481   -1.5322  -12.4387 H   0  0  0  0  0  0  0  0  0  0  0  0
   -3.4129    0.8293   -8.2340 Si  0  0  0  0  0  4  0  0  0  0  0  0
   -2.0920    0.5194   -8.7800 H   0  0  0  0  0  0  0  0  0  0  0  0
   -3.2768    1.4111   -6.8929 H   0  0  0  0  0  0  0  0  0  0  0  0
   -4.0668    1.8515   -9.0867 H   0  0  0  0  0  0  0  0  0  0  0  0
  1  2  1  0
  1  5  1  0
  2  3  1  0
  2  4  1  0
  2  8  1  0
  5  6  1  0
  5  7  1  0
  5 11  1  0
  8  9  1  0
  8 10  1  0
  8 17  1  0
 11 12  1  0
 11 13  1  0
 11 14  1  0
 14 15  1  0
 14 16  1  0
 14 23  1  0
 17 18  1  0
 17 19  1  0
 17 20  1  0
 20 21  1  0
 20 22  1  0
 20 26  1  0
 23 24  1  0
 23 25  1  0
 23 29  1  0
 26 27  1  0
 26 28  1  0
 26 36  1  0
 29 30  1  0
 29 31  1  0
 29 32  1  0
 32 33  1  0
 32 34  1  0
 32 35  1  0
 36 37  1  0
 36 38  1  0
 36 39  1  0
M  CHG  1   1   1
M  RAD  1   1   2
M  END
$$$$

     RDKit          3D

 39 38  0  0  0  0  0  0  0  0999 V2000
   -0.0744   -0.0794   -4.3578 S   0  0  0  0  0  2  0  0  0  0  0  0
   -1.4064   -1.7150   -4.4467 Si  0  0  0  0  0  4  0  0  0  0  0  0
   -1.4061   -2.3801   -3.1119 H   0  0  0  0  0  0  0  0  0  0  0  0
   -2.7884   -1.3173   -4.7049 H   0  0  0  0  0  0  0  0  0  0  0  0
    0.7685    0.4543   -6.2190 Si  0  0  0  0  0  4  0  0  0  0  0  0
    1.2892    1.8460   -6.1110 H   0  0  0  0  0  0  0  0  0  0  0  0
   -0.1631    0.4368   -7.3286 H   0  0  0  0  0  0  0  0  0  0  0  0
   -0.8017   -3.2571   -5.9319 Si  0  0  0  0  0  4  0  0  0  0  0  0
   -1.7761   -4.3791   -5.7981 H   0  0  0  0  0  0  0  0  0  0  0  0
    0.5129   -3.8321   -5.5993 H   0  0  0  0  0  0  0  0  0  0  0  0
    2.5525   -0.8524   -6.5856 Si  0  0  0  0  0  4  0  0  0  0  0  0
    2.1355   -2.2336   -6.3555 H   0  0  0  0  0  0  0  0  0  0  0  0
    3.5618   -0.4837   -5.5596 H   0  0  0  0  0  0  0  0  0  0  0  0
    3.2944   -0.5376   -8.6436 Si  0  0  0  0  0  4  0  0  0  0  0  0
    2.1438   -0.3210   -9.5278 H   0  0  0  0  0  0  0  0  0  0  0  0
    4.1706    0.6507   -8.6434 H   0  0  0  0  0  0  0  0  0  0  0  0
   -0.9205   -2.5173   -8.0096 Si  0  0  0  0  0  4  0  0  0  0  0  0
   -1.6785   -1.2610   -8.0905 H   0  0  0  0  0  0  0  0  0  0  0  0
    0.4218   -2.3363   -8.6237 H   0  0  0  0  0  0  0  0  0  0  0  0
   -1.9996   -3.9921   -9.3318 Si  0  0  0  0  0  4  0  0  0  0  0  0
   -1.1954   -5.1774   -9.5714 H   0  0  0  0  0  0  0  0  0  0  0  0
   -3.2495   -4.3536   -8.6693 H   0  0  0  0  0  0  0  0  0  0  0  0
    4.4952   -2.2782   -9.3475 Si  0  0  0  0  0  4  0  0  0  0  0  0
    5.7715   -2.2965   -8.6367 H   0  0  0  0  0  0  0  0  0  0  0  0
    4.7863   -2.0718  -10.7716 H   0  0  0  0  0  0  0  0  0  0  0  0
   -2.4560   -2.9093  -11.2515 Si  0  0  0  0  0  4  0  0  0  0  0  0
   -2.7149   -3.8400  -12.3402 H   0  0  0  0  0  0  0  0  0  0  0  0
   -3.6023   -2.0136  -10.9959 H   0  0  0  0  0  0  0  0  0  0  0  0
    3.4099   -4.1940   -9.0741 Si  0  0  0  0  0  4  0  0  0  0  0  0
    1.9739   -4.0652   -9.3217 H   0  0  0  0  0  0  0  0  0  0  0  0
    3.9288   -5.1453  -10.0973 H   0  0  0  0  0  0  0  0  0  0  0  0
    3.8235   -5.1100   -7.0814 Si  0  0  0  0  0  4  0  0  0  0  0  0
    5.2708   -5.2371   -6.9182 H   0  0  0  0  0  0  0  0  0  0  0  0
    3.1715   -6.4290   -7.0586 H   0  0  0  0  0  0  0  0  0  0  0  0
    3.2857   -4.3085   -5.9858 H   0  0  0  0  0  0  0  0  0  0  0  0
   -0.6779   -1.6023  -11.6898 Si  0  0  0  0  0  4  0  0  0  0  0  0
   -0.6384   -1.2117  -13.0965 H   0  0  0  0  0  0  0  0  0  0  0  0
   -0.7622   -0.4324  -10.7983 H   0  0  0  0  0  0  0  0  0  0  0  0
    0.5155   -2.3823  -11.2918 H   0  0  0  0  0  0  0  0  0  0  0  0
  1  2  1  0
  1  5  1  0
  2  3  1  0
  2  4  1  0
  2  8  1  0
  5  6  1  0
  5  7  1  0
  5 11  1  0
  8  9  1  0
  8 10  1  0
  8 17  1  0
 11 12  1  0
 11 13  1  0
 11 14  1  0
 14 15  1  0
 14 16  1  0
 14 23  1  0
 17 18  1  0
 17 19  1  0
 17 20  1  0
 20 21  1  0
 20 22  1  0
 20 26  1  0
 23 24  1  0
 23 25  1  0
 23 29  1  0
 26 27  1  0
 26 28  1  0
 26 36  1  0
 29 30  1  0
 29 31  1  0
 29 32  1  0
 32 33  1  0
 32 34  1  0
 32 35  1  0
 36 37  1  0
 36 38  1  0
 36 39  1  0
M  CHG  1   1   1
M  RAD  1   1   2
M  END
$$$$

     RDKit          3D

 39 38  0  0  0  0  0  0  0  0999 V2000
   -0.0744   -0.0794   -4.3578 S   0  0  0  0  0  2  0  0  0  0  0  0
    0.8182    1.8851   -4.4935 Si  0  0  0  0  0  4  0  0  0  0  0  0
    1.3003    2.2988   -3.1788 H   0  0  0  0  0  0  0  0  0  0  0  0
   -0.2678    2.8058   -4.9040 H   0  0  0  0  0  0  0  0  0  0  0  0
    0.3109   -1.1582   -6.1608 Si  0  0  0  0  0  4  0  0  0  0  0  0
    1.3586   -0.4613   -6.9232 H   0  0  0  0  0  0  0  0  0  0  0  0
    0.7943   -2.5191   -5.8682 H   0  0  0  0  0  0  0  0  0  0  0  0
    2.4332    1.7879   -6.0151 Si  0  0  0  0  0  4  0  0  0  0  0  0
    2.9818    0.4147   -6.0184 H   0  0  0  0  0  0  0  0  0  0  0  0
    1.8611    2.0358   -7.3535 H   0  0  0  0  0  0  0  0  0  0  0  0
   -1.4961   -1.2793   -7.4603 Si  0  0  0  0  0  4  0  0  0  0  0  0
   -2.3489   -0.1022   -7.2869 H   0  0  0  0  0  0  0  0  0  0  0  0
   -2.2502   -2.5160   -7.1590 H   0  0  0  0  0  0  0  0  0  0  0  0
   -0.8250   -1.3100   -9.6027 Si  0  0  0  0  0  4  0  0  0  0  0  0
   -1.8212   -2.0623  -10.3663 H   0  0  0  0  0  0  0  0  0  0  0  0
    0.5165   -1.9002   -9.7236 H   0  0  0  0  0  0  0  0  0  0  0  0
    4.0726    3.2199   -5.6025 Si  0  0  0  0  0  4  0  0  0  0  0  0
    4.1825    3.5551   -4.1843 H   0  0  0  0  0  0  0  0  0  0  0  0
    5.3440    2.6206   -6.0866 H   0  0  0  0  0  0  0  0  0  0  0  0
    3.7840    5.1001   -6.8028 Si  0  0  0  0  0  4  0  0  0  0  0  0
    3.8380    4.7462   -8.2331 H   0  0  0  0  0  0  0  0  0  0  0  0
    4.8935    5.9969   -6.4506 H   0  0  0  0  0  0  0  0  0  0  0  0
   -0.7773    0.7692  -10.4407 Si  0  0  0  0  0  4  0  0  0  0  0  0
   -0.3681    1.6813   -9.3675 H   0  0  0  0  0  0  0  0  0  0  0  0
    0.2075    0.7872  -11.5450 H   0  0  0  0  0  0  0  0  0  0  0  0
    1.8216    6.0093   -6.3050 Si  0  0  0  0  0  4  0  0  0  0  0  0
    1.5071    5.7163   -4.8979 H   0  0  0  0  0  0  0  0  0  0  0  0
    1.9418    7.4656   -6.4428 H   0  0  0  0  0  0  0  0  0  0  0  0
   -2.7955    1.2726  -11.2268 Si  0  0  0  0  0  4  0  0  0  0  0  0
   -3.4180    0.0346  -11.7055 H   0  0  0  0  0  0  0  0  0  0  0  0
   -2.7119    2.1953  -12.3568 H   0  0  0  0  0  0  0  0  0  0  0  0
   -4.0464    2.1015   -9.5788 Si  0  0  0  0  0  4  0  0  0  0  0  0
   -3.2014    2.5323   -8.4519 H   0  0  0  0  0  0  0  0  0  0  0  0
   -4.9742    1.0659   -9.0742 H   0  0  0  0  0  0  0  0  0  0  0  0
   -4.8734    3.2289  -10.0599 H   0  0  0  0  0  0  0  0  0  0  0  0
    0.2589    5.1625   -7.6461 Si  0  0  0  0  0  4  0  0  0  0  0  0
   -0.7994    4.4788   -6.8688 H   0  0  0  0  0  0  0  0  0  0  0  0
   -0.4017    6.2483   -8.4050 H   0  0  0  0  0  0  0  0  0  0  0  0
    0.8647    4.2259   -8.6193 H   0  0  0  0  0  0  0  0  0  0  0  0
  1  2  1  0
  1  5  1  0
  2  3  1  0
  2  4  1  0
  2  8  1  0
  5  6  1  0
  5  7  1  0
  5 11  1  0
  8  9  1  0
  8 10  1  0
  8 17  1  0
 11 12  1  0
 11 13  1  0
 11 14  1  0
 14 15  1  0
 14 16  1  0
 14 23  1  0
 17 18  1  0
 17 19  1  0
 17 20  1  0
 20 21  1  0
 20 22  1  0
 20 26  1  0
 23 24  1  0
 23 25  1  0
 23 29  1  0
 26 27  1  0
 26 28  1  0
 26 36  1  0
 29 30  1  0
 29 31  1  0
 29 32  1  0
 32 33  1  0
 32 34  1  0
 32 35  1  0
 36 37  1  0
 36 38  1  0
 36 39  1  0
M  CHG  1   1   1
M  RAD  1   1   2
M  END
$$$$

     RDKit          3D

 39 38  0  0  0  0  0  0  0  0999 V2000
   -0.0744   -0.0794   -4.3578 S   0  0  0  0  0  2  0  0  0  0  0  0
    1.6789   -0.7004   -5.4584 Si  0  0  0  0  0  4  0  0  0  0  0  0
    2.5939   -1.3092   -4.4563 H   0  0  0  0  0  0  0  0  0  0  0  0
    1.3494   -1.7478   -6.4179 H   0  0  0  0  0  0  0  0  0  0  0  0
   -1.8484   -0.9498   -5.1957 Si  0  0  0  0  0  4  0  0  0  0  0  0
   -1.7129   -2.3994   -5.3517 H   0  0  0  0  0  0  0  0  0  0  0  0
   -2.9436   -0.7070   -4.2382 H   0  0  0  0  0  0  0  0  0  0  0  0
    2.6170    1.0771   -6.3789 Si  0  0  0  0  0  4  0  0  0  0  0  0
    1.7844    2.2708   -6.2218 H   0  0  0  0  0  0  0  0  0  0  0  0
    3.8969    1.3650   -5.6782 H   0  0  0  0  0  0  0  0  0  0  0  0
   -2.3049    0.0798   -7.1087 Si  0  0  0  0  0  4  0  0  0  0  0  0
   -1.0394    0.6123   -7.6502 H   0  0  0  0  0  0  0  0  0  0  0  0
   -3.2540    1.1959   -6.9314 H   0  0  0  0  0  0  0  0  0  0  0  0
   -3.1286   -1.3521   -8.6204 Si  0  0  0  0  0  4  0  0  0  0  0  0
   -4.5767   -1.5293   -8.4660 H   0  0  0  0  0  0  0  0  0  0  0  0
   -2.9038   -0.7380   -9.9507 H   0  0  0  0  0  0  0  0  0  0  0  0
    3.0656    0.8047   -8.5270 Si  0  0  0  0  0  4  0  0  0  0  0  0
    3.1839    2.1421   -9.1540 H   0  0  0  0  0  0  0  0  0  0  0  0
    4.4165    0.1947   -8.6343 H   0  0  0  0  0  0  0  0  0  0  0  0
    1.5844   -0.4245   -9.5857 Si  0  0  0  0  0  4  0  0  0  0  0  0
    2.3049   -1.3613  -10.4950 H   0  0  0  0  0  0  0  0  0  0  0  0
    0.8319   -1.2872   -8.6501 H   0  0  0  0  0  0  0  0  0  0  0  0
   -2.0409   -3.3039   -8.5185 Si  0  0  0  0  0  4  0  0  0  0  0  0
   -0.8162   -3.0796   -7.7398 H   0  0  0  0  0  0  0  0  0  0  0  0
   -2.8721   -4.2932   -7.8076 H   0  0  0  0  0  0  0  0  0  0  0  0
    0.1555    0.7353  -10.7922 Si  0  0  0  0  0  4  0  0  0  0  0  0
   -1.1259    0.8843  -10.0841 H   0  0  0  0  0  0  0  0  0  0  0  0
   -0.1574    0.0251  -12.0595 H   0  0  0  0  0  0  0  0  0  0  0  0
   -1.5270   -4.0056  -10.5776 Si  0  0  0  0  0  4  0  0  0  0  0  0
   -1.1566   -2.8217  -11.3735 H   0  0  0  0  0  0  0  0  0  0  0  0
   -2.7168   -4.6344  -11.1859 H   0  0  0  0  0  0  0  0  0  0  0  0
    0.1874   -5.4217  -10.5489 Si  0  0  0  0  0  4  0  0  0  0  0  0
    1.0190   -5.1631  -11.7285 H   0  0  0  0  0  0  0  0  0  0  0  0
   -0.3048   -6.8085  -10.5844 H   0  0  0  0  0  0  0  0  0  0  0  0
    0.9995   -5.2703   -9.3394 H   0  0  0  0  0  0  0  0  0  0  0  0
    0.8905    2.7567  -11.3219 Si  0  0  0  0  0  4  0  0  0  0  0  0
   -0.3020    3.5945  -11.6388 H   0  0  0  0  0  0  0  0  0  0  0  0
    1.5860    3.4238  -10.2297 H   0  0  0  0  0  0  0  0  0  0  0  0
    1.7025    2.7521  -12.5618 H   0  0  0  0  0  0  0  0  0  0  0  0
  1  2  1  0
  1  5  1  0
  2  3  1  0
  2  4  1  0
  2  8  1  0
  5  6  1  0
  5  7  1  0
  5 11  1  0
  8  9  1  0
  8 10  1  0
  8 17  1  0
 11 12  1  0
 11 13  1  0
 11 14  1  0
 14 15  1  0
 14 16  1  0
 14 23  1  0
 17 18  1  0
 17 19  1  0
 17 20  1  0
 20 21  1  0
 20 22  1  0
 20 26  1  0
 23 24  1  0
 23 25  1  0
 23 29  1  0
 26 27  1  0
 26 28  1  0
 26 36  1  0
 29 30  1  0
 29 31  1  0
 29 32  1  0
 32 33  1  0
 32 34  1  0
 32 35  1  0
 36 37  1  0
 36 38  1  0
 36 39  1  0
M  CHG  1   1   1
M  RAD  1   1   2
M  END
$$$$

     RDKit          3D

 39 38  0  0  0  0  0  0  0  0999 V2000
   -0.0744   -0.0794   -4.3578 S   0  0  0  0  0  2  0  0  0  0  0  0
   -1.2869    1.6590   -4.8103 Si  0  0  0  0  0  4  0  0  0  0  0  0
   -2.5987    1.4122   -4.1462 H   0  0  0  0  0  0  0  0  0  0  0  0
   -0.6714    2.8802   -4.3329 H   0  0  0  0  0  0  0  0  0  0  0  0
   -0.8052   -1.6642   -5.6467 Si  0  0  0  0  0  4  0  0  0  0  0  0
   -1.5697   -1.1266   -6.7632 H   0  0  0  0  0  0  0  0  0  0  0  0
   -1.7663   -2.4386   -4.8087 H   0  0  0  0  0  0  0  0  0  0  0  0
   -1.6326    1.6640   -7.0135 Si  0  0  0  0  0  4  0  0  0  0  0  0
   -3.0240    1.2562   -7.3300 H   0  0  0  0  0  0  0  0  0  0  0  0
   -0.7628    0.6850   -7.7032 H   0  0  0  0  0  0  0  0  0  0  0  0
    0.8375   -2.9485   -6.3639 Si  0  0  0  0  0  4  0  0  0  0  0  0
    0.7982   -4.2217   -5.5906 H   0  0  0  0  0  0  0  0  0  0  0  0
    2.1547   -2.3383   -6.0382 H   0  0  0  0  0  0  0  0  0  0  0  0
    0.7159   -3.4334   -8.5077 Si  0  0  0  0  0  4  0  0  0  0  0  0
    0.4988   -4.8870   -8.7237 H   0  0  0  0  0  0  0  0  0  0  0  0
    2.0223   -3.1271   -9.1556 H   0  0  0  0  0  0  0  0  0  0  0  0
   -1.1671    3.6686   -7.9000 Si  0  0  0  0  0  4  0  0  0  0  0  0
   -2.2498    4.6028   -7.6332 H   0  0  0  0  0  0  0  0  0  0  0  0
   -1.0846    3.4736   -9.3650 H   0  0  0  0  0  0  0  0  0  0  0  0
    0.7886    4.3475   -7.0909 Si  0  0  0  0  0  4  0  0  0  0  0  0
    0.7582    5.8201   -7.0238 H   0  0  0  0  0  0  0  0  0  0  0  0
    0.9459    3.8229   -5.7358 H   0  0  0  0  0  0  0  0  0  0  0  0
   -0.8563   -2.3322   -9.5875 Si  0  0  0  0  0  4  0  0  0  0  0  0
   -1.9053   -3.2564  -10.1053 H   0  0  0  0  0  0  0  0  0  0  0  0
   -1.5324   -1.3227   -8.7932 H   0  0  0  0  0  0  0  0  0  0  0  0
    2.4867    3.7621   -8.3952 Si  0  0  0  0  0  4  0  0  0  0  0  0
    2.1980    4.1134   -9.7824 H   0  0  0  0  0  0  0  0  0  0  0  0
    3.6969    4.4303   -7.8909 H   0  0  0  0  0  0  0  0  0  0  0  0
   -0.0216   -1.2891  -11.4046 Si  0  0  0  0  0  4  0  0  0  0  0  0
    1.1569   -1.9838  -11.9107 H   0  0  0  0  0  0  0  0  0  0  0  0
    0.3835    0.0685  -11.0211 H   0  0  0  0  0  0  0  0  0  0  0  0
   -1.6161   -1.1039  -12.9616 Si  0  0  0  0  0  4  0  0  0  0  0  0
   -1.5760    0.2333  -13.5927 H   0  0  0  0  0  0  0  0  0  0  0  0
   -1.3561   -2.1030  -14.0133 H   0  0  0  0  0  0  0  0  0  0  0  0
   -2.9598   -1.3250  -12.3834 H   0  0  0  0  0  0  0  0  0  0  0  0
    2.8639    1.5617   -8.3164 Si  0  0  0  0  0  4  0  0  0  0  0  0
    1.7300    0.7917   -8.8267 H   0  0  0  0  0  0  0  0  0  0  0  0
    3.1985    1.1196   -6.9568 H   0  0  0  0  0  0  0  0  0  0  0  0
    4.0531    1.3001   -9.1632 H   0  0  0  0  0  0  0  0  0  0  0  0
  1  2  1  0
  1  5  1  0
  2  3  1  0
  2  4  1  0
  2  8  1  0
  5  6  1  0
  5  7  1  0
  5 11  1  0
  8  9  1  0
  8 10  1  0
  8 17  1  0
 11 12  1  0
 11 13  1  0
 11 14  1  0
 14 15  1  0
 14 16  1  0
 14 23  1  0
 17 18  1  0
 17 19  1  0
 17 20  1  0
 20 21  1  0
 20 22  1  0
 20 26  1  0
 23 24  1  0
 23 25  1  0
 23 29  1  0
 26 27  1  0
 26 28  1  0
 26 36  1  0
 29 30  1  0
 29 31  1  0
 29 32  1  0
 32 33  1  0
 32 34  1  0
 32 35  1  0
 36 37  1  0
 36 38  1  0
 36 39  1  0
M  CHG  1   1   1
M  RAD  1   1   2
M  END
$$$$

     RDKit          3D

 39 38  0  0  0  0  0  0  0  0999 V2000
   -0.0744   -0.0794   -4.3578 S   0  0  0  0  0  2  0  0  0  0  0  0
   -1.3626   -1.7497   -4.4465 Si  0  0  0  0  0  4  0  0  0  0  0  0
   -1.3439   -2.4149   -3.1118 H   0  0  0  0  0  0  0  0  0  0  0  0
   -2.7548   -1.3887   -4.7038 H   0  0  0  0  0  0  0  0  0  0  0  0
    0.7530    0.4770   -6.2193 Si  0  0  0  0  0  4  0  0  0  0  0  0
    1.2367    1.8820   -6.1112 H   0  0  0  0  0  0  0  0  0  0  0  0
   -0.1784    0.4351   -7.3284 H   0  0  0  0  0  0  0  0  0  0  0  0
   -0.7180   -3.2748   -5.9325 Si  0  0  0  0  0  4  0  0  0  0  0  0
   -1.6622   -4.4223   -5.7984 H   0  0  0  0  0  0  0  0  0  0  0  0
    0.6115   -3.8149   -5.6007 H   0  0  0  0  0  0  0  0  0  0  0  0
    2.5709   -0.7819   -6.5872 Si  0  0  0  0  0  4  0  0  0  0  0  0
    2.1908   -2.1737   -6.3573 H   0  0  0  0  0  0  0  0  0  0  0  0
    3.5706   -0.3869   -5.5617 H   0  0  0  0  0  0  0  0  0  0  0  0
    3.3031   -0.4469   -8.6455 Si  0  0  0  0  0  4  0  0  0  0  0  0
    2.1467   -0.2607   -9.5291 H   0  0  0  0  0  0  0  0  0  0  0  0
    4.1474    0.7642   -8.6454 H   0  0  0  0  0  0  0  0  0  0  0  0
   -0.8575   -2.5378   -8.0099 Si  0  0  0  0  0  4  0  0  0  0  0  0
   -1.6486   -1.3021   -8.0900 H   0  0  0  0  0  0  0  0  0  0  0  0
    0.4792   -2.3212   -8.6247 H   0  0  0  0  0  0  0  0  0  0  0  0
   -1.8978   -4.0404   -9.3320 Si  0  0  0  0  0  4  0  0  0  0  0  0
   -1.0626   -5.2039   -9.5723 H   0  0  0  0  0  0  0  0  0  0  0  0
   -3.1374   -4.4350   -8.6689 H   0  0  0  0  0  0  0  0  0  0  0  0
    4.5493   -2.1549   -9.3505 Si  0  0  0  0  0  4  0  0  0  0  0  0
    5.8260   -2.1395   -8.6404 H   0  0  0  0  0  0  0  0  0  0  0  0
    4.8340   -1.9405  -10.7748 H   0  0  0  0  0  0  0  0  0  0  0  0
   -2.3838   -2.9695  -11.2510 Si  0  0  0  0  0  4  0  0  0  0  0  0
   -2.6186   -3.9065  -12.3399 H   0  0  0  0  0  0  0  0  0  0  0  0
   -3.5534   -2.1046  -10.9946 H   0  0  0  0  0  0  0  0  0  0  0  0
    3.5153   -4.0989   -9.0771 Si  0  0  0  0  0  4  0  0  0  0  0  0
    2.0762   -4.0081   -9.3239 H   0  0  0  0  0  0  0  0  0  0  0  0
    4.0586   -5.0358  -10.1009 H   0  0  0  0  0  0  0  0  0  0  0  0
    3.9541   -5.0042   -7.0849 Si  0  0  0  0  0  4  0  0  0  0  0  0
    5.4043   -5.0929   -6.9226 H   0  0  0  0  0  0  0  0  0  0  0  0
    3.3373   -6.3400   -7.0621 H   0  0  0  0  0  0  0  0  0  0  0  0
    3.3958   -4.2174   -5.9888 H   0  0  0  0  0  0  0  0  0  0  0  0
   -0.6413   -1.6157  -11.6899 Si  0  0  0  0  0  4  0  0  0  0  0  0
   -0.6128   -1.2238  -13.0965 H   0  0  0  0  0  0  0  0  0  0  0  0
   -0.7560   -0.4487  -10.7980 H   0  0  0  0  0  0  0  0  0  0  0  0
    0.5727   -2.3639  -11.2928 H   0  0  0  0  0  0  0  0  0  0  0  0
  1  2  1  0
  1  5  1  0
  2  3  1  0
  2  4  1  0
  2  8  1  0
  5  6  1  0
  5  7  1  0
  5 11  1  0
  8  9  1  0
  8 10  1  0
  8 17  1  0
 11 12  1  0
 11 13  1  0
 11 14  1  0
 14 15  1  0
 14 16  1  0
 14 23  1  0
 17 18  1  0
 17 19  1  0
 17 20  1  0
 20 21  1  0
 20 22  1  0
 20 26  1  0
 23 24  1  0
 23 25  1  0
 23 29  1  0
 26 27  1  0
 26 28  1  0
 26 36  1  0
 29 30  1  0
 29 31  1  0
 29 32  1  0
 32 33  1  0
 32 34  1  0
 32 35  1  0
 36 37  1  0
 36 38  1  0
 36 39  1  0
M  CHG  1   1   1
M  RAD  1   1   2
M  END
$$$$

     RDKit          3D

 39 38  0  0  0  0  0  0  0  0999 V2000
   -0.0744   -0.0794   -4.3578 S   0  0  0  0  0  2  0  0  0  0  0  0
    2.0066   -0.5209   -4.7605 Si  0  0  0  0  0  4  0  0  0  0  0  0
    2.8809    0.4975   -4.1888 H   0  0  0  0  0  0  0  0  0  0  0  0
    2.2912   -1.7957   -4.0432 H   0  0  0  0  0  0  0  0  0  0  0  0
   -1.1946    0.0638   -6.1685 Si  0  0  0  0  0  4  0  0  0  0  0  0
   -2.3942    0.8958   -5.8781 H   0  0  0  0  0  0  0  0  0  0  0  0
   -0.4429    0.7441   -7.2362 H   0  0  0  0  0  0  0  0  0  0  0  0
    2.3625   -0.8318   -6.9202 Si  0  0  0  0  0  4  0  0  0  0  0  0
    1.0620   -0.6758   -7.6313 H   0  0  0  0  0  0  0  0  0  0  0  0
    2.9588   -2.1425   -7.1699 H   0  0  0  0  0  0  0  0  0  0  0  0
   -1.9508   -1.9311   -6.8351 Si  0  0  0  0  0  4  0  0  0  0  0  0
   -3.1304   -2.3278   -6.0706 H   0  0  0  0  0  0  0  0  0  0  0  0
   -2.3740   -1.7769   -8.2483 H   0  0  0  0  0  0  0  0  0  0  0  0
   -0.4005   -3.4941   -6.7310 Si  0  0  0  0  0  4  0  0  0  0  0  0
    0.3414   -3.5030   -8.0193 H   0  0  0  0  0  0  0  0  0  0  0  0
    0.5497   -3.2797   -5.6163 H   0  0  0  0  0  0  0  0  0  0  0  0
    3.7348    0.7146   -7.7759 Si  0  0  0  0  0  4  0  0  0  0  0  0
    3.5999    1.9933   -7.0861 H   0  0  0  0  0  0  0  0  0  0  0  0
    5.1039    0.2386   -7.6767 H   0  0  0  0  0  0  0  0  0  0  0  0
    3.2260    0.9089   -9.9611 Si  0  0  0  0  0  4  0  0  0  0  0  0
    1.7842    0.6024  -10.1159 H   0  0  0  0  0  0  0  0  0  0  0  0
    3.5027    2.2718  -10.4430 H   0  0  0  0  0  0  0  0  0  0  0  0
   -1.2618   -5.5365   -6.4704 Si  0  0  0  0  0  4  0  0  0  0  0  0
   -1.6270   -5.6772   -5.0474 H   0  0  0  0  0  0  0  0  0  0  0  0
   -2.3859   -5.7826   -7.3658 H   0  0  0  0  0  0  0  0  0  0  0  0
    4.3370   -0.6217  -11.1606 Si  0  0  0  0  0  4  0  0  0  0  0  0
    5.3571   -1.2620  -10.3343 H   0  0  0  0  0  0  0  0  0  0  0  0
    4.9811    0.0648  -12.2974 H   0  0  0  0  0  0  0  0  0  0  0  0
    0.4115   -6.9947   -6.8738 Si  0  0  0  0  0  4  0  0  0  0  0  0
    0.0856   -8.3035   -6.3389 H   0  0  0  0  0  0  0  0  0  0  0  0
    1.5871   -6.4712   -6.1306 H   0  0  0  0  0  0  0  0  0  0  0  0
    0.9085   -7.0535   -9.0369 Si  0  0  0  0  0  4  0  0  0  0  0  0
    0.3090   -8.2379   -9.6917 H   0  0  0  0  0  0  0  0  0  0  0  0
    0.4509   -5.8372   -9.7181 H   0  0  0  0  0  0  0  0  0  0  0  0
    2.3596   -7.1688   -9.2119 H   0  0  0  0  0  0  0  0  0  0  0  0
    2.9748   -2.1996  -11.9306 Si  0  0  0  0  0  4  0  0  0  0  0  0
    1.8690   -2.4861  -11.0026 H   0  0  0  0  0  0  0  0  0  0  0  0
    3.7137   -3.4651  -12.1248 H   0  0  0  0  0  0  0  0  0  0  0  0
    2.4126   -1.8397  -13.2527 H   0  0  0  0  0  0  0  0  0  0  0  0
  1  2  1  0
  1  5  1  0
  2  3  1  0
  2  4  1  0
  2  8  1  0
  5  6  1  0
  5  7  1  0
  5 11  1  0
  8  9  1  0
  8 10  1  0
  8 17  1  0
 11 12  1  0
 11 13  1  0
 11 14  1  0
 14 15  1  0
 14 16  1  0
 14 23  1  0
 17 18  1  0
 17 19  1  0
 17 20  1  0
 20 21  1  0
 20 22  1  0
 20 26  1  0
 23 24  1  0
 23 25  1  0
 23 29  1  0
 26 27  1  0
 26 28  1  0
 26 36  1  0
 29 30  1  0
 29 31  1  0
 29 32  1  0
 32 33  1  0
 32 34  1  0
 32 35  1  0
 36 37  1  0
 36 38  1  0
 36 39  1  0
M  CHG  1   1   1
M  RAD  1   1   2
M  END
$$$$
