
     RDKit          3D

 39 38  0  0  0  0  0  0  0  0999 V2000
   -0.0001   -0.0003   -4.6668 S   0  0  0  0  0  2  0  0  0  0  0  0
   -1.2696   -0.5376   -6.3356 Si  0  0  0  0  0  4  0  0  0  0  0  0
   -0.4497   -1.1376   -7.4141 H   0  0  0  0  0  0  0  0  0  0  0  0
   -2.3168   -1.4582   -5.9336 H   0  0  0  0  0  0  0  0  0  0  0  0
    1.5321    1.2907   -5.4893 Si  0  0  0  0  0  4  0  0  0  0  0  0
    2.6389    1.3170   -4.5530 H   0  0  0  0  0  0  0  0  0  0  0  0
    0.9281    2.6175   -5.7099 H   0  0  0  0  0  0  0  0  0  0  0  0
   -2.1404    1.3886   -7.1200 Si  0  0  0  0  0  4  0  0  0  0  0  0
   -1.0899    2.1935   -7.7168 H   0  0  0  0  0  0  0  0  0  0  0  0
   -2.8118    2.0578   -5.9975 H   0  0  0  0  0  0  0  0  0  0  0  0
    2.1317    0.3881   -7.4586 Si  0  0  0  0  0  4  0  0  0  0  0  0
    3.2387    1.1834   -7.9764 H   0  0  0  0  0  0  0  0  0  0  0  0
    0.9699    0.3759   -8.3412 H   0  0  0  0  0  0  0  0  0  0  0  0
    2.8365   -1.6999   -7.0578 Si  0  0  0  0  0  4  0  0  0  0  0  0
    3.9802   -1.6342   -6.1298 H   0  0  0  0  0  0  0  0  0  0  0  0
    1.7244   -2.4367   -6.4212 H   0  0  0  0  0  0  0  0  0  0  0  0
   -3.6235    0.7986   -8.7081 Si  0  0  0  0  0  4  0  0  0  0  0  0
   -4.6126    1.8413   -8.9015 H   0  0  0  0  0  0  0  0  0  0  0  0
   -2.8590    0.5007   -9.9234 H   0  0  0  0  0  0  0  0  0  0  0  0
   -4.5674   -1.1232   -8.0071 Si  0  0  0  0  0  4  0  0  0  0  0  0
   -5.9232   -1.1970   -8.5280 H   0  0  0  0  0  0  0  0  0  0  0  0
   -4.6081   -1.0991   -6.5394 H   0  0  0  0  0  0  0  0  0  0  0  0
    3.3905   -2.7382   -8.9434 Si  0  0  0  0  0  4  0  0  0  0  0  0
    3.9651   -1.7661   -9.8968 H   0  0  0  0  0  0  0  0  0  0  0  0
    4.4357   -3.7348   -8.6418 H   0  0  0  0  0  0  0  0  0  0  0  0
   -3.2860   -2.8140   -8.6619 Si  0  0  0  0  0  4  0  0  0  0  0  0
   -3.0174   -3.7611   -7.5702 H   0  0  0  0  0  0  0  0  0  0  0  0
   -2.0056   -2.3343   -9.1808 H   0  0  0  0  0  0  0  0  0  0  0  0
    1.6353   -3.7620   -9.8463 Si  0  0  0  0  0  4  0  0  0  0  0  0
    1.9354   -5.1755  -10.1302 H   0  0  0  0  0  0  0  0  0  0  0  0
    0.5172   -3.7117   -8.8822 H   0  0  0  0  0  0  0  0  0  0  0  0
    1.0222   -2.7589  -11.7475 Si  0  0  0  0  0  4  0  0  0  0  0  0
   -0.4300   -2.9045  -11.9129 H   0  0  0  0  0  0  0  0  0  0  0  0
    1.3345   -1.3140  -11.7018 H   0  0  0  0  0  0  0  0  0  0  0  0
    1.6596   -3.4091  -12.9059 H   0  0  0  0  0  0  0  0  0  0  0  0
   -4.2922   -3.9527  -10.3110 Si  0  0  0  0  0  4  0  0  0  0  0  0
   -5.5224   -4.5938   -9.8445 H   0  0  0  0  0  0  0  0  0  0  0  0
   -3.3664   -5.0210  -10.7300 H   0  0  0  0  0  0  0  0  0  0  0  0
   -4.5220   -3.0904  -11.4831 H   0  0  0  0  0  0  0  0  0  0  0  0
  1  2  1  0
  1  5  1  0
  2  3  1  0
  2  4  1  0
  2  8  1  0
  5  6  1  0
  5  7  1  0
  5 11  1  0
  8  9  1  0
  8 10  1  0
  8 17  1  0
 11 12  1  0
 11 13  1  0
 11 14  1  0
 14 15  1  0
 14 16  1  0
 14 23  1  0
 17 18  1  0
 17 19  1  0
 17 20  1  0
 20 21  1  0
 20 22  1  0
 20 26  1  0
 23 24  1  0
 23 25  1  0
 23 29  1  0
 26 27  1  0
 26 28  1  0
 26 36  1  0
 29 30  1  0
 29 31  1  0
 29 32  1  0
 32 33  1  0
 32 34  1  0
 32 35  1  0
 36 37  1  0
 36 38  1  0
 36 39  1  0
M  CHG  1   1   1
M  RAD  1   1   2
M  END
$$$$

     RDKit          3D

 39 38  0  0  0  0  0  0  0  0999 V2000
   -0.0001   -0.0003   -4.6668 S   0  0  0  0  0  2  0  0  0  0  0  0
   -1.2568   -0.6854   -6.2572 Si  0  0  0  0  0  4  0  0  0  0  0  0
   -1.5271    0.3749   -7.2442 H   0  0  0  0  0  0  0  0  0  0  0  0
   -2.5810   -1.1196   -5.7494 H   0  0  0  0  0  0  0  0  0  0  0  0
    0.1345    2.1311   -4.6127 Si  0  0  0  0  0  4  0  0  0  0  0  0
    0.6003    2.5098   -3.2581 H   0  0  0  0  0  0  0  0  0  0  0  0
   -1.1558    2.7813   -4.8237 H   0  0  0  0  0  0  0  0  0  0  0  0
   -0.3112   -2.4668   -7.2432 Si  0  0  0  0  0  4  0  0  0  0  0  0
   -0.9674   -2.6584   -8.5328 H   0  0  0  0  0  0  0  0  0  0  0  0
   -0.5609   -3.6808   -6.4429 H   0  0  0  0  0  0  0  0  0  0  0  0
    1.6790    2.8884   -6.0504 Si  0  0  0  0  0  4  0  0  0  0  0  0
    2.9836    2.3218   -5.6490 H   0  0  0  0  0  0  0  0  0  0  0  0
    1.7539    4.3333   -5.9293 H   0  0  0  0  0  0  0  0  0  0  0  0
    1.2585    2.2028   -8.1220 Si  0  0  0  0  0  4  0  0  0  0  0  0
    0.6827    0.8572   -8.0473 H   0  0  0  0  0  0  0  0  0  0  0  0
    2.5260    2.0841   -8.8700 H   0  0  0  0  0  0  0  0  0  0  0  0
    1.8967   -2.1564   -7.4649 Si  0  0  0  0  0  4  0  0  0  0  0  0
    2.2764   -0.9234   -6.7732 H   0  0  0  0  0  0  0  0  0  0  0  0
    2.6491   -3.3260   -6.9925 H   0  0  0  0  0  0  0  0  0  0  0  0
    2.2920   -1.8474   -9.6653 Si  0  0  0  0  0  4  0  0  0  0  0  0
    1.5547   -0.6425  -10.0953 H   0  0  0  0  0  0  0  0  0  0  0  0
    3.7226   -1.7123   -9.9268 H   0  0  0  0  0  0  0  0  0  0  0  0
   -0.1906    3.5421   -9.1622 Si  0  0  0  0  0  4  0  0  0  0  0  0
    0.5583    4.2482  -10.2266 H   0  0  0  0  0  0  0  0  0  0  0  0
   -0.7566    4.5380   -8.2460 H   0  0  0  0  0  0  0  0  0  0  0  0
    1.4637   -3.6785  -10.6915 Si  0  0  0  0  0  4  0  0  0  0  0  0
    1.9845   -3.8141  -12.0372 H   0  0  0  0  0  0  0  0  0  0  0  0
   -0.0077   -3.5264  -10.6679 H   0  0  0  0  0  0  0  0  0  0  0  0
   -1.7902    2.3124  -10.1283 Si  0  0  0  0  0  4  0  0  0  0  0  0
   -1.1282    1.0904  -10.6502 H   0  0  0  0  0  0  0  0  0  0  0  0
   -2.7167    1.8702   -9.0628 H   0  0  0  0  0  0  0  0  0  0  0  0
   -2.8300    3.4193  -11.7362 Si  0  0  0  0  0  4  0  0  0  0  0  0
   -2.2374    3.0209  -13.0307 H   0  0  0  0  0  0  0  0  0  0  0  0
   -2.8146    4.8660  -11.5421 H   0  0  0  0  0  0  0  0  0  0  0  0
   -4.2400    2.9532  -11.7701 H   0  0  0  0  0  0  0  0  0  0  0  0
    2.0252   -5.4248   -9.3923 Si  0  0  0  0  0  4  0  0  0  0  0  0
    3.3255   -5.1172   -8.7462 H   0  0  0  0  0  0  0  0  0  0  0  0
    2.1769   -6.6446  -10.1579 H   0  0  0  0  0  0  0  0  0  0  0  0
    1.0385   -5.5385   -8.3036 H   0  0  0  0  0  0  0  0  0  0  0  0
  1  2  1  0
  1  5  1  0
  2  3  1  0
  2  4  1  0
  2  8  1  0
  5  6  1  0
  5  7  1  0
  5 11  1  0
  8  9  1  0
  8 10  1  0
  8 17  1  0
 11 12  1  0
 11 13  1  0
 11 14  1  0
 14 15  1  0
 14 16  1  0
 14 23  1  0
 17 18  1  0
 17 19  1  0
 17 20  1  0
 20 21  1  0
 20 22  1  0
 20 26  1  0
 23 24  1  0
 23 25  1  0
 23 29  1  0
 26 27  1  0
 26 28  1  0
 26 36  1  0
 29 30  1  0
 29 31  1  0
 29 32  1  0
 32 33  1  0
 32 34  1  0
 32 35  1  0
 36 37  1  0
 36 38  1  0
 36 39  1  0
M  CHG  1   1   1
M  RAD  1   1   2
M  END
$$$$

     RDKit          3D

 39 38  0  0  0  0  0  0  0  0999 V2000
   -0.0001   -0.0003   -4.6668 S   0  0  0  0  0  2  0  0  0  0  0  0
    1.2464   -0.5868   -6.3364 Si  0  0  0  0  0  4  0  0  0  0  0  0
    1.1464    0.4250   -7.4141 H   0  0  0  0  0  0  0  0  0  0  0  0
    2.6309   -0.7535   -5.9349 H   0  0  0  0  0  0  0  0  0  0  0  0
   -1.9841    0.2810   -5.4886 Si  0  0  0  0  0  4  0  0  0  0  0  0
   -2.7416    1.0875   -4.5515 H   0  0  0  0  0  0  0  0  0  0  0  0
   -2.5700   -1.0538   -5.7100 H   0  0  0  0  0  0  0  0  0  0  0  0
    0.3916   -2.5198   -7.1219 Si  0  0  0  0  0  4  0  0  0  0  0  0
   -0.9088   -2.2733   -7.7181 H   0  0  0  0  0  0  0  0  0  0  0  0
    0.3411   -3.4671   -6.0001 H   0  0  0  0  0  0  0  0  0  0  0  0
   -1.7120    1.3312   -7.4572 Si  0  0  0  0  0  4  0  0  0  0  0  0
   -3.0429    1.6260   -7.9744 H   0  0  0  0  0  0  0  0  0  0  0  0
   -0.9283    0.4742   -8.3407 H   0  0  0  0  0  0  0  0  0  0  0  0
   -0.6260    3.2485   -7.0554 Si  0  0  0  0  0  4  0  0  0  0  0  0
   -1.4374    4.0563   -6.1265 H   0  0  0  0  0  0  0  0  0  0  0  0
    0.6648    2.9107   -6.4193 H   0  0  0  0  0  0  0  0  0  0  0  0
    1.8200   -3.2302   -8.7109 Si  0  0  0  0  0  4  0  0  0  0  0  0
    1.7025   -4.6625   -8.9053 H   0  0  0  0  0  0  0  0  0  0  0  0
    1.5318   -2.4610   -9.9255 H   0  0  0  0  0  0  0  0  0  0  0  0
    3.8817   -2.6525   -8.0100 Si  0  0  0  0  0  4  0  0  0  0  0  0
    4.8407   -3.6132   -8.5319 H   0  0  0  0  0  0  0  0  0  0  0  0
    3.8912   -2.6999   -6.5423 H   0  0  0  0  0  0  0  0  0  0  0  0
   -0.2222    4.3551   -8.9403 Si  0  0  0  0  0  4  0  0  0  0  0  0
   -1.3301    4.1356   -9.8935 H   0  0  0  0  0  0  0  0  0  0  0  0
   -0.1766    5.7983   -8.6377 H   0  0  0  0  0  0  0  0  0  0  0  0
    4.2868   -0.5695   -8.6635 Si  0  0  0  0  0  4  0  0  0  0  0  0
    4.8138    0.2614   -7.5713 H   0  0  0  0  0  0  0  0  0  0  0  0
    3.0753    0.0650   -9.1816 H   0  0  0  0  0  0  0  0  0  0  0  0
    1.7109    3.7306   -9.8441 Si  0  0  0  0  0  4  0  0  0  0  0  0
    2.5640    4.8971  -10.1275 H   0  0  0  0  0  0  0  0  0  0  0  0
    2.4194    2.8632   -8.8808 H   0  0  0  0  0  0  0  0  0  0  0  0
    1.3718    2.6061  -11.7461 Si  0  0  0  0  0  4  0  0  0  0  0  0
    2.4487    1.6212  -11.9124 H   0  0  0  0  0  0  0  0  0  0  0  0
    0.0869    1.8752  -11.7005 H   0  0  0  0  0  0  0  0  0  0  0  0
    1.4309    3.5155  -12.9038 H   0  0  0  0  0  0  0  0  0  0  0  0
    5.8059   -0.5588  -10.3130 Si  0  0  0  0  0  4  0  0  0  0  0  0
    7.1041   -1.0482   -9.8472 H   0  0  0  0  0  0  0  0  0  0  0  0
    5.9844    0.8438  -10.7310 H   0  0  0  0  0  0  0  0  0  0  0  0
    5.3162   -1.3043  -11.4855 H   0  0  0  0  0  0  0  0  0  0  0  0
  1  2  1  0
  1  5  1  0
  2  3  1  0
  2  4  1  0
  2  8  1  0
  5  6  1  0
  5  7  1  0
  5 11  1  0
  8  9  1  0
  8 10  1  0
  8 17  1  0
 11 12  1  0
 11 13  1  0
 11 14  1  0
 14 15  1  0
 14 16  1  0
 14 23  1  0
 17 18  1  0
 17 19  1  0
 17 20  1  0
 20 21  1  0
 20 22  1  0
 20 26  1  0
 23 24  1  0
 23 25  1  0
 23 29  1  0
 26 27  1  0
 26 28  1  0
 26 36  1  0
 29 30  1  0
 29 31  1  0
 29 32  1  0
 32 33  1  0
 32 34  1  0
 32 35  1  0
 36 37  1  0
 36 38  1  0
 36 39  1  0
M  CHG  1   1   1
M  RAD  1   1   2
M  END
$$$$

     RDKit          3D

 39 38  0  0  0  0  0  0  0  0999 V2000
   -0.0001   -0.0003   -4.6668 S   0  0  0  0  0  2  0  0  0  0  0  0
   -1.2676    0.5427   -6.3353 Si  0  0  0  0  0  4  0  0  0  0  0  0
   -1.1325   -0.4644   -7.4137 H   0  0  0  0  0  0  0  0  0  0  0  0
   -2.6568    0.6600   -5.9329 H   0  0  0  0  0  0  0  0  0  0  0  0
    1.9922   -0.2109   -5.4899 Si  0  0  0  0  0  4  0  0  0  0  0  0
    2.7782   -0.9906   -4.5538 H   0  0  0  0  0  0  0  0  0  0  0  0
    2.5304    1.1440   -5.7108 H   0  0  0  0  0  0  0  0  0  0  0  0
   -0.4821    2.5051   -7.1202 Si  0  0  0  0  0  4  0  0  0  0  0  0
    0.8259    2.3051   -7.7173 H   0  0  0  0  0  0  0  0  0  0  0  0
   -0.4644    3.4530   -5.9978 H   0  0  0  0  0  0  0  0  0  0  0  0
    1.7561   -1.2688   -7.4590 Si  0  0  0  0  0  4  0  0  0  0  0  0
    3.0964   -1.5161   -7.9772 H   0  0  0  0  0  0  0  0  0  0  0  0
    0.9421   -0.4396   -8.3415 H   0  0  0  0  0  0  0  0  0  0  0  0
    0.7389   -3.2236   -7.0577 Si  0  0  0  0  0  4  0  0  0  0  0  0
    1.5789   -4.0027   -6.1298 H   0  0  0  0  0  0  0  0  0  0  0  0
   -0.5627   -2.9321   -6.4207 H   0  0  0  0  0  0  0  0  0  0  0  0
   -1.9356    3.1655   -8.7079 Si  0  0  0  0  0  4  0  0  0  0  0  0
   -1.8690    4.6012   -8.9015 H   0  0  0  0  0  0  0  0  0  0  0  0
   -1.6212    2.4077   -9.9232 H   0  0  0  0  0  0  0  0  0  0  0  0
   -3.9752    2.5148   -8.0062 Si  0  0  0  0  0  4  0  0  0  0  0  0
   -4.9679    3.4413   -8.5270 H   0  0  0  0  0  0  0  0  0  0  0  0
   -3.9855    2.5610   -6.5385 H   0  0  0  0  0  0  0  0  0  0  0  0
    0.3734   -4.3427   -8.9430 Si  0  0  0  0  0  4  0  0  0  0  0  0
    1.4722   -4.0836   -9.8968 H   0  0  0  0  0  0  0  0  0  0  0  0
    0.3790   -5.7868   -8.6412 H   0  0  0  0  0  0  0  0  0  0  0  0
   -4.3068    0.4192   -8.6607 Si  0  0  0  0  0  4  0  0  0  0  0  0
   -4.8034   -0.4305   -7.5687 H   0  0  0  0  0  0  0  0  0  0  0  0
   -3.0740   -0.1717   -9.1799 H   0  0  0  0  0  0  0  0  0  0  0  0
   -1.5811   -3.7864   -9.8454 Si  0  0  0  0  0  4  0  0  0  0  0  0
   -2.3926   -4.9822  -10.1289 H   0  0  0  0  0  0  0  0  0  0  0  0
   -2.3193   -2.9452   -8.8811 H   0  0  0  0  0  0  0  0  0  0  0  0
   -1.2831   -2.6495  -11.7468 Si  0  0  0  0  0  4  0  0  0  0  0  0
   -2.3943   -1.7033  -11.9119 H   0  0  0  0  0  0  0  0  0  0  0  0
   -0.0249   -1.8737  -11.7016 H   0  0  0  0  0  0  0  0  0  0  0  0
   -1.3107   -3.5598  -12.9051 H   0  0  0  0  0  0  0  0  0  0  0  0
   -5.8256    0.3557  -10.3093 Si  0  0  0  0  0  4  0  0  0  0  0  0
   -7.1400    0.7987   -9.8425 H   0  0  0  0  0  0  0  0  0  0  0  0
   -5.9546   -1.0521  -10.7281 H   0  0  0  0  0  0  0  0  0  0  0  0
   -5.3633    1.1187  -11.4817 H   0  0  0  0  0  0  0  0  0  0  0  0
  1  2  1  0
  1  5  1  0
  2  3  1  0
  2  4  1  0
  2  8  1  0
  5  6  1  0
  5  7  1  0
  5 11  1  0
  8  9  1  0
  8 10  1  0
  8 17  1  0
 11 12  1  0
 11 13  1  0
 11 14  1  0
 14 15  1  0
 14 16  1  0
 14 23  1  0
 17 18  1  0
 17 19  1  0
 17 20  1  0
 20 21  1  0
 20 22  1  0
 20 26  1  0
 23 24  1  0
 23 25  1  0
 23 29  1  0
 26 27  1  0
 26 28  1  0
 26 36  1  0
 29 30  1  0
 29 31  1  0
 29 32  1  0
 32 33  1  0
 32 34  1  0
 32 35  1  0
 36 37  1  0
 36 38  1  0
 36 39  1  0
M  CHG  1   1   1
M  RAD  1   1   2
M  END
$$$$

     RDKit          3D

 39 38  0  0  0  0  0  0  0  0999 V2000
   -0.0001   -0.0003   -4.6668 S   0  0  0  0  0  2  0  0  0  0  0  0
    0.5538   -1.2617   -6.3364 Si  0  0  0  0  0  4  0  0  0  0  0  0
    1.1430   -0.4333   -7.4143 H   0  0  0  0  0  0  0  0  0  0  0  0
    1.4881   -2.2969   -5.9350 H   0  0  0  0  0  0  0  0  0  0  0  0
   -1.3111    1.5153   -5.4884 Si  0  0  0  0  0  4  0  0  0  0  0  0
   -1.3520    2.6210   -4.5515 H   0  0  0  0  0  0  0  0  0  0  0  0
   -2.6299    0.8939   -5.7094 H   0  0  0  0  0  0  0  0  0  0  0  0
   -1.3608   -2.1573   -7.1213 Si  0  0  0  0  0  4  0  0  0  0  0  0
   -2.1794   -1.1171   -7.7174 H   0  0  0  0  0  0  0  0  0  0  0  0
   -2.0210   -2.8381   -5.9992 H   0  0  0  0  0  0  0  0  0  0  0  0
   -0.4165    2.1278   -7.4574 Si  0  0  0  0  0  4  0  0  0  0  0  0
   -1.2263    3.2245   -7.9745 H   0  0  0  0  0  0  0  0  0  0  0  0
   -0.3890    0.9668   -8.3407 H   0  0  0  0  0  0  0  0  0  0  0  0
    1.6620    2.8598   -7.0561 Si  0  0  0  0  0  4  0  0  0  0  0  0
    1.5813    4.0020   -6.1274 H   0  0  0  0  0  0  0  0  0  0  0  0
    2.4134    1.7571   -6.4202 H   0  0  0  0  0  0  0  0  0  0  0  0
   -0.7512   -3.6315   -8.7103 Si  0  0  0  0  0  4  0  0  0  0  0  0
   -1.7809   -4.6342   -8.9042 H   0  0  0  0  0  0  0  0  0  0  0  0
   -0.4634   -2.8625   -9.9250 H   0  0  0  0  0  0  0  0  0  0  0  0
    1.1828   -4.5505   -8.0098 Si  0  0  0  0  0  4  0  0  0  0  0  0
    1.2744   -5.9049   -8.5315 H   0  0  0  0  0  0  0  0  0  0  0  0
    1.1592   -4.5923   -6.5421 H   0  0  0  0  0  0  0  0  0  0  0  0
    2.6930    3.4285   -8.9414 Si  0  0  0  0  0  4  0  0  0  0  0  0
    1.7133    3.9908   -9.8945 H   0  0  0  0  0  0  0  0  0  0  0  0
    3.6757    4.4866   -8.6392 H   0  0  0  0  0  0  0  0  0  0  0  0
    2.8566   -3.2465   -8.6638 Si  0  0  0  0  0  4  0  0  0  0  0  0
    3.8001   -2.9662   -7.5720 H   0  0  0  0  0  0  0  0  0  0  0  0
    2.3601   -1.9723   -9.1820 H   0  0  0  0  0  0  0  0  0  0  0  0
    3.7397    1.6875   -9.8453 Si  0  0  0  0  0  4  0  0  0  0  0  0
    5.1492    2.0063  -10.1291 H   0  0  0  0  0  0  0  0  0  0  0  0
    3.7041    0.5682   -8.8819 H   0  0  0  0  0  0  0  0  0  0  0  0
    2.7447    1.0623  -11.7469 Si  0  0  0  0  0  4  0  0  0  0  0  0
    2.9094   -0.3877  -11.9131 H   0  0  0  0  0  0  0  0  0  0  0  0
    1.2959    1.3556  -11.7010 H   0  0  0  0  0  0  0  0  0  0  0  0
    3.3865    1.7090  -12.9049 H   0  0  0  0  0  0  0  0  0  0  0  0
    4.0084   -4.2368  -10.3135 Si  0  0  0  0  0  4  0  0  0  0  0  0
    4.6656   -5.4586   -9.8477 H   0  0  0  0  0  0  0  0  0  0  0  0
    5.0644   -3.2967  -10.7320 H   0  0  0  0  0  0  0  0  0  0  0  0
    3.1492   -4.4771  -11.4858 H   0  0  0  0  0  0  0  0  0  0  0  0
  1  2  1  0
  1  5  1  0
  2  3  1  0
  2  4  1  0
  2  8  1  0
  5  6  1  0
  5  7  1  0
  5 11  1  0
  8  9  1  0
  8 10  1  0
  8 17  1  0
 11 12  1  0
 11 13  1  0
 11 14  1  0
 14 15  1  0
 14 16  1  0
 14 23  1  0
 17 18  1  0
 17 19  1  0
 17 20  1  0
 20 21  1  0
 20 22  1  0
 20 26  1  0
 23 24  1  0
 23 25  1  0
 23 29  1  0
 26 27  1  0
 26 28  1  0
 26 36  1  0
 29 30  1  0
 29 31  1  0
 29 32  1  0
 32 33  1  0
 32 34  1  0
 32 35  1  0
 36 37  1  0
 36 38  1  0
 36 39  1  0
M  CHG  1   1   1
M  RAD  1   1   2
M  END
$$$$

     RDKit          3D

 39 38  0  0  0  0  0  0  0  0999 V2000
   -0.0001   -0.0003   -4.6668 S   0  0  0  0  0  2  0  0  0  0  0  0
   -0.8411    1.1584   -6.2568 Si  0  0  0  0  0  4  0  0  0  0  0  0
    0.1753    1.5621   -7.2443 H   0  0  0  0  0  0  0  0  0  0  0  0
   -1.4408    2.4163   -5.7487 H   0  0  0  0  0  0  0  0  0  0  0  0
    2.1311    0.1388   -4.6139 Si  0  0  0  0  0  4  0  0  0  0  0  0
    2.5670   -0.2748   -3.2595 H   0  0  0  0  0  0  0  0  0  0  0  0
    2.6108    1.5016   -4.8252 H   0  0  0  0  0  0  0  0  0  0  0  0
   -2.4875   -0.0073   -7.2418 Si  0  0  0  0  0  4  0  0  0  0  0  0
   -2.7621    0.6190   -8.5313 H   0  0  0  0  0  0  0  0  0  0  0  0
   -3.7230    0.0852   -6.4408 H   0  0  0  0  0  0  0  0  0  0  0  0
    3.0788   -1.2963   -6.0520 Si  0  0  0  0  0  4  0  0  0  0  0  0
    2.6840   -2.6626   -5.6504 H   0  0  0  0  0  0  0  0  0  0  0  0
    4.5216   -1.1857   -5.9318 H   0  0  0  0  0  0  0  0  0  0  0  0
    2.3440   -0.9669   -8.1232 Si  0  0  0  0  0  4  0  0  0  0  0  0
    0.9358   -0.5679   -8.0478 H   0  0  0  0  0  0  0  0  0  0  0  0
    2.3880   -2.2393   -8.8712 H   0  0  0  0  0  0  0  0  0  0  0  0
   -1.8974   -2.1573   -7.4638 Si  0  0  0  0  0  4  0  0  0  0  0  0
   -0.6257   -2.3762   -6.7728 H   0  0  0  0  0  0  0  0  0  0  0  0
   -2.9610   -3.0531   -6.9908 H   0  0  0  0  0  0  0  0  0  0  0  0
   -1.5417   -2.5099   -9.6644 Si  0  0  0  0  0  4  0  0  0  0  0  0
   -0.4411   -1.6246  -10.0950 H   0  0  0  0  0  0  0  0  0  0  0  0
   -1.2249   -3.9116   -9.9260 H   0  0  0  0  0  0  0  0  0  0  0  0
    3.4864    0.6414   -9.1641 Si  0  0  0  0  0  4  0  0  0  0  0  0
    4.2819   -0.0110  -10.2289 H   0  0  0  0  0  0  0  0  0  0  0  0
    4.4023    1.3301   -8.2484 H   0  0  0  0  0  0  0  0  0  0  0  0
   -3.4641   -1.9226  -10.6895 Si  0  0  0  0  0  4  0  0  0  0  0  0
   -3.5328   -2.4566  -12.0352 H   0  0  0  0  0  0  0  0  0  0  0  0
   -3.5014   -0.4439  -10.6660 H   0  0  0  0  0  0  0  0  0  0  0  0
    2.0618    2.0706  -10.1295 Si  0  0  0  0  0  4  0  0  0  0  0  0
    0.9341    1.2578  -10.6507 H   0  0  0  0  0  0  0  0  0  0  0  0
    1.5053    2.9330   -9.0637 H   0  0  0  0  0  0  0  0  0  0  0  0
    3.0257    3.2434  -11.7380 Si  0  0  0  0  0  4  0  0  0  0  0  0
    2.7057    2.6046  -13.0323 H   0  0  0  0  0  0  0  0  0  0  0  0
    4.4626    3.4131  -11.5446 H   0  0  0  0  0  0  0  0  0  0  0  0
    2.3832    4.5822  -11.7716 H   0  0  0  0  0  0  0  0  0  0  0  0
   -5.1236   -2.7028   -9.3894 Si  0  0  0  0  0  4  0  0  0  0  0  0
   -4.6519   -3.9531   -8.7435 H   0  0  0  0  0  0  0  0  0  0  0  0
   -6.3145   -3.0092  -10.1543 H   0  0  0  0  0  0  0  0  0  0  0  0
   -5.3620   -1.7387   -8.3006 H   0  0  0  0  0  0  0  0  0  0  0  0
  1  2  1  0
  1  5  1  0
  2  3  1  0
  2  4  1  0
  2  8  1  0
  5  6  1  0
  5  7  1  0
  5 11  1  0
  8  9  1  0
  8 10  1  0
  8 17  1  0
 11 12  1  0
 11 13  1  0
 11 14  1  0
 14 15  1  0
 14 16  1  0
 14 23  1  0
 17 18  1  0
 17 19  1  0
 17 20  1  0
 20 21  1  0
 20 22  1  0
 20 26  1  0
 23 24  1  0
 23 25  1  0
 23 29  1  0
 26 27  1  0
 26 28  1  0
 26 36  1  0
 29 30  1  0
 29 31  1  0
 29 32  1  0
 32 33  1  0
 32 34  1  0
 32 35  1  0
 36 37  1  0
 36 38  1  0
 36 39  1  0
M  CHG  1   1   1
M  RAD  1   1   2
M  END
$$$$
