
     RDKit          3D

 39 38  0  0  0  0  0  0  0  0999 V2000
   -0.0337   -0.0036   -3.1992 S   0  0  0  0  0  2  0  0  0  0  0  0
    0.8040    1.8612   -3.7160 Si  0  0  0  0  0  4  0  0  0  0  0  0
    0.0030    2.9319   -3.0551 H   0  0  0  0  0  0  0  0  0  0  0  0
    2.1834    2.0330   -3.1777 H   0  0  0  0  0  0  0  0  0  0  0  0
    0.5815   -1.6019   -4.4373 Si  0  0  0  0  0  4  0  0  0  0  0  0
    2.0492   -1.7349   -4.5116 H   0  0  0  0  0  0  0  0  0  0  0  0
    0.0784   -2.8643   -3.8646 H   0  0  0  0  0  0  0  0  0  0  0  0
    0.7493    2.2696   -5.9024 Si  0  0  0  0  0  4  0  0  0  0  0  0
   -0.5272    1.8044   -6.4273 H   0  0  0  0  0  0  0  0  0  0  0  0
    1.9070    1.6601   -6.5614 H   0  0  0  0  0  0  0  0  0  0  0  0
   -0.2181   -1.4451   -6.5106 Si  0  0  0  0  0  4  0  0  0  0  0  0
    0.2573   -2.6557   -7.2418 H   0  0  0  0  0  0  0  0  0  0  0  0
    0.3146   -0.2946   -7.2324 H   0  0  0  0  0  0  0  0  0  0  0  0
   -2.4404   -1.5151   -6.5203 Si  0  0  0  0  0  4  0  0  0  0  0  0
   -2.9433   -1.2205   -7.8532 H   0  0  0  0  0  0  0  0  0  0  0  0
   -2.8335   -2.9200   -6.2145 H   0  0  0  0  0  0  0  0  0  0  0  0
    0.8502    4.4860   -6.3040 Si  0  0  0  0  0  4  0  0  0  0  0  0
    1.8296    5.1335   -5.4319 H   0  0  0  0  0  0  0  0  0  0  0  0
   -0.4648    5.1096   -6.1219 H   0  0  0  0  0  0  0  0  0  0  0  0
    1.3923    4.7278   -8.4704 Si  0  0  0  0  0  4  0  0  0  0  0  0
    2.8574    4.6185   -8.5642 H   0  0  0  0  0  0  0  0  0  0  0  0
    0.8801    5.9773   -9.0142 H   0  0  0  0  0  0  0  0  0  0  0  0
   -3.3406   -0.2115   -4.9832 Si  0  0  0  0  0  4  0  0  0  0  0  0
   -4.6103   -0.8380   -4.5182 H   0  0  0  0  0  0  0  0  0  0  0  0
   -2.5094   -0.0244   -3.8095 H   0  0  0  0  0  0  0  0  0  0  0  0
    0.4563    3.0127   -9.5750 Si  0  0  0  0  0  4  0  0  0  0  0  0
    0.6570    1.7467   -8.8372 H   0  0  0  0  0  0  0  0  0  0  0  0
   -0.9834    3.2791   -9.7797 H   0  0  0  0  0  0  0  0  0  0  0  0
   -3.8765    1.8003   -5.7855 Si  0  0  0  0  0  4  0  0  0  0  0  0
   -2.7124    2.6693   -5.9298 H   0  0  0  0  0  0  0  0  0  0  0  0
   -4.7787    2.4371   -4.7968 H   0  0  0  0  0  0  0  0  0  0  0  0
   -4.9691    1.6548   -7.7164 Si  0  0  0  0  0  4  0  0  0  0  0  0
   -6.3908    1.4606   -7.4188 H   0  0  0  0  0  0  0  0  0  0  0  0
   -4.8524    2.9602   -8.4104 H   0  0  0  0  0  0  0  0  0  0  0  0
   -4.4249    0.5824   -8.5435 H   0  0  0  0  0  0  0  0  0  0  0  0
    1.3887    2.7727  -11.5794 Si  0  0  0  0  0  4  0  0  0  0  0  0
    2.1736    3.9730  -11.9255 H   0  0  0  0  0  0  0  0  0  0  0  0
    2.2664    1.5980  -11.6511 H   0  0  0  0  0  0  0  0  0  0  0  0
    0.3649    2.6167  -12.6281 H   0  0  0  0  0  0  0  0  0  0  0  0
  1  2  1  0
  1  5  1  0
  2  3  1  0
  2  4  1  0
  2  8  1  0
  5  6  1  0
  5  7  1  0
  5 11  1  0
  8  9  1  0
  8 10  1  0
  8 17  1  0
 11 12  1  0
 11 13  1  0
 11 14  1  0
 14 15  1  0
 14 16  1  0
 14 23  1  0
 17 18  1  0
 17 19  1  0
 17 20  1  0
 20 21  1  0
 20 22  1  0
 20 26  1  0
 23 24  1  0
 23 25  1  0
 23 29  1  0
 26 27  1  0
 26 28  1  0
 26 36  1  0
 29 30  1  0
 29 31  1  0
 29 32  1  0
 32 33  1  0
 32 34  1  0
 32 35  1  0
 36 37  1  0
 36 38  1  0
 36 39  1  0
M  CHG  1   1   1
M  RAD  1   1   2
M  END
$$$$

     RDKit          3D

 39 38  0  0  0  0  0  0  0  0999 V2000
   -0.0337   -0.0036   -3.1992 S   0  0  0  0  0  2  0  0  0  0  0  0
   -2.1040    0.2894   -3.6365 Si  0  0  0  0  0  4  0  0  0  0  0  0
   -2.6827    1.1892   -2.6189 H   0  0  0  0  0  0  0  0  0  0  0  0
   -2.8048   -0.9874   -3.5277 H   0  0  0  0  0  0  0  0  0  0  0  0
    0.7194   -1.7992   -4.1140 Si  0  0  0  0  0  4  0  0  0  0  0  0
    1.7667   -1.5162   -5.0927 H   0  0  0  0  0  0  0  0  0  0  0  0
    1.2818   -2.6268   -3.0192 H   0  0  0  0  0  0  0  0  0  0  0  0
   -2.3391    1.1913   -5.6791 Si  0  0  0  0  0  4  0  0  0  0  0  0
   -3.1694    0.3370   -6.5224 H   0  0  0  0  0  0  0  0  0  0  0  0
   -3.0307    2.4956   -5.5367 H   0  0  0  0  0  0  0  0  0  0  0  0
   -0.9642   -2.9421   -5.0092 Si  0  0  0  0  0  4  0  0  0  0  0  0
   -2.1352   -2.0535   -5.2141 H   0  0  0  0  0  0  0  0  0  0  0  0
   -1.3846   -4.0421   -4.1358 H   0  0  0  0  0  0  0  0  0  0  0  0
   -0.3953   -3.7603   -7.0327 Si  0  0  0  0  0  4  0  0  0  0  0  0
    0.6026   -2.9202   -7.6805 H   0  0  0  0  0  0  0  0  0  0  0  0
    0.2513   -5.0736   -6.7650 H   0  0  0  0  0  0  0  0  0  0  0  0
   -0.3214    1.5021   -6.5821 Si  0  0  0  0  0  4  0  0  0  0  0  0
    0.5998    0.5497   -5.9369 H   0  0  0  0  0  0  0  0  0  0  0  0
    0.0974    2.8797   -6.2420 H   0  0  0  0  0  0  0  0  0  0  0  0
   -0.3614    1.2277   -8.7927 Si  0  0  0  0  0  4  0  0  0  0  0  0
   -0.1241    2.5282   -9.4628 H   0  0  0  0  0  0  0  0  0  0  0  0
   -1.6869    0.7444   -9.2461 H   0  0  0  0  0  0  0  0  0  0  0  0
   -2.2429   -4.0286   -8.1976 Si  0  0  0  0  0  4  0  0  0  0  0  0
   -2.7920   -5.3770   -7.9869 H   0  0  0  0  0  0  0  0  0  0  0  0
   -3.2570   -3.0446   -7.7331 H   0  0  0  0  0  0  0  0  0  0  0  0
    1.2607   -0.1662   -9.3759 Si  0  0  0  0  0  4  0  0  0  0  0  0
    0.7426   -1.5055   -9.7127 H   0  0  0  0  0  0  0  0  0  0  0  0
    2.2009   -0.3443   -8.2535 H   0  0  0  0  0  0  0  0  0  0  0  0
   -1.9539   -3.7388  -10.3781 Si  0  0  0  0  0  4  0  0  0  0  0  0
   -1.1683   -2.5645  -10.7062 H   0  0  0  0  0  0  0  0  0  0  0  0
   -1.3232   -4.9091  -11.0063 H   0  0  0  0  0  0  0  0  0  0  0  0
   -4.0132   -3.4674  -11.2589 Si  0  0  0  0  0  4  0  0  0  0  0  0
   -4.7037   -2.4971  -10.3655 H   0  0  0  0  0  0  0  0  0  0  0  0
   -3.9499   -2.9991  -12.6278 H   0  0  0  0  0  0  0  0  0  0  0  0
   -4.7631   -4.7364  -11.1198 H   0  0  0  0  0  0  0  0  0  0  0  0
    2.4092    0.5694  -11.1345 Si  0  0  0  0  0  4  0  0  0  0  0  0
    3.4135   -0.4508  -11.4706 H   0  0  0  0  0  0  0  0  0  0  0  0
    1.5445    0.7325  -12.3036 H   0  0  0  0  0  0  0  0  0  0  0  0
    3.1303    1.7959  -10.7993 H   0  0  0  0  0  0  0  0  0  0  0  0
  1  2  1  0
  1  5  1  0
  2  3  1  0
  2  4  1  0
  2  8  1  0
  5  6  1  0
  5  7  1  0
  5 11  1  0
  8  9  1  0
  8 10  1  0
  8 17  1  0
 11 12  1  0
 11 13  1  0
 11 14  1  0
 14 15  1  0
 14 16  1  0
 14 23  1  0
 17 18  1  0
 17 19  1  0
 17 20  1  0
 20 21  1  0
 20 22  1  0
 20 26  1  0
 23 24  1  0
 23 25  1  0
 23 29  1  0
 26 27  1  0
 26 28  1  0
 26 36  1  0
 29 30  1  0
 29 31  1  0
 29 32  1  0
 32 33  1  0
 32 34  1  0
 32 35  1  0
 36 37  1  0
 36 38  1  0
 36 39  1  0
M  CHG  1   1   1
M  RAD  1   1   2
M  END
$$$$

     RDKit          3D

 39 38  0  0  0  0  0  0  0  0999 V2000
   -0.0337   -0.0036   -3.1992 S   0  0  0  0  0  2  0  0  0  0  0  0
   -2.0716    0.2008   -3.7009 Si  0  0  0  0  0  4  0  0  0  0  0  0
   -2.8281   -0.9011   -3.0388 H   0  0  0  0  0  0  0  0  0  0  0  0
   -2.6685    1.4523   -3.1537 H   0  0  0  0  0  0  0  0  0  0  0  0
    1.2779    1.0917   -4.4425 Si  0  0  0  0  0  4  0  0  0  0  0  0
    0.9378    2.5259   -4.5090 H   0  0  0  0  0  0  0  0  0  0  0  0
    2.6387    1.0131   -3.8796 H   0  0  0  0  0  0  0  0  0  0  0  0
   -2.4569    0.0274   -5.8853 Si  0  0  0  0  0  4  0  0  0  0  0  0
   -1.6143   -1.0334   -6.4201 H   0  0  0  0  0  0  0  0  0  0  0  0
   -2.2510    1.3211   -6.5410 H   0  0  0  0  0  0  0  0  0  0  0  0
    1.3684    0.2914   -6.5195 Si  0  0  0  0  0  4  0  0  0  0  0  0
    2.3603    1.1291   -7.2546 H   0  0  0  0  0  0  0  0  0  0  0  0
    0.1033    0.4341   -7.2318 H   0  0  0  0  0  0  0  0  0  0  0  0
    2.1400   -1.7937   -6.5424 Si  0  0  0  0  0  4  0  0  0  0  0  0
    2.0109   -2.3592   -7.8765 H   0  0  0  0  0  0  0  0  0  0  0  0
    3.5991   -1.7217   -6.2466 H   0  0  0  0  0  0  0  0  0  0  0  0
   -4.5935   -0.5789   -6.2742 Si  0  0  0  0  0  4  0  0  0  0  0  0
   -5.5122    0.1411   -5.3929 H   0  0  0  0  0  0  0  0  0  0  0  0
   -4.7663   -2.0245   -6.0962 H   0  0  0  0  0  0  0  0  0  0  0  0
   -5.0101   -0.1335   -8.4360 Si  0  0  0  0  0  4  0  0  0  0  0  0
   -5.3721    1.2909   -8.5220 H   0  0  0  0  0  0  0  0  0  0  0  0
   -6.0362   -1.0137   -8.9759 H   0  0  0  0  0  0  0  0  0  0  0  0
    1.2003   -3.0669   -5.0034 Si  0  0  0  0  0  4  0  0  0  0  0  0
    2.2007   -4.0738   -4.5492 H   0  0  0  0  0  0  0  0  0  0  0  0
    0.7674   -2.3424   -3.8239 H   0  0  0  0  0  0  0  0  0  0  0  0
   -3.0945   -0.4726   -9.5554 Si  0  0  0  0  0  4  0  0  0  0  0  0
   -1.9524    0.1168   -8.8234 H   0  0  0  0  0  0  0  0  0  0  0  0
   -2.8915   -1.9216   -9.7669 H   0  0  0  0  0  0  0  0  0  0  0  0
   -0.5430   -4.2106   -5.7977 Si  0  0  0  0  0  4  0  0  0  0  0  0
   -1.7375   -3.3820   -5.9305 H   0  0  0  0  0  0  0  0  0  0  0  0
   -0.8535   -5.2720   -4.8107 H   0  0  0  0  0  0  0  0  0  0  0  0
   -0.0718   -5.1934   -7.7356 Si  0  0  0  0  0  4  0  0  0  0  0  0
    0.5657   -6.4810   -7.4473 H   0  0  0  0  0  0  0  0  0  0  0  0
   -1.3516   -5.4945   -8.4218 H   0  0  0  0  0  0  0  0  0  0  0  0
    0.7665   -4.3338   -8.5654 H   0  0  0  0  0  0  0  0  0  0  0  0
   -3.1769    0.4952  -11.5556 Si  0  0  0  0  0  4  0  0  0  0  0  0
   -4.5666    0.8599  -11.8907 H   0  0  0  0  0  0  0  0  0  0  0  0
   -2.3419    1.7006  -11.6288 H   0  0  0  0  0  0  0  0  0  0  0  0
   -2.7114   -0.4222  -12.6111 H   0  0  0  0  0  0  0  0  0  0  0  0
  1  2  1  0
  1  5  1  0
  2  3  1  0
  2  4  1  0
  2  8  1  0
  5  6  1  0
  5  7  1  0
  5 11  1  0
  8  9  1  0
  8 10  1  0
  8 17  1  0
 11 12  1  0
 11 13  1  0
 11 14  1  0
 14 15  1  0
 14 16  1  0
 14 23  1  0
 17 18  1  0
 17 19  1  0
 17 20  1  0
 20 21  1  0
 20 22  1  0
 20 26  1  0
 23 24  1  0
 23 25  1  0
 23 29  1  0
 26 27  1  0
 26 28  1  0
 26 36  1  0
 29 30  1  0
 29 31  1  0
 29 32  1  0
 32 33  1  0
 32 34  1  0
 32 35  1  0
 36 37  1  0
 36 38  1  0
 36 39  1  0
M  CHG  1   1   1
M  RAD  1   1   2
M  END
$$$$

     RDKit          3D

 39 38  0  0  0  0  0  0  0  0999 V2000
   -0.0337   -0.0036   -3.1992 S   0  0  0  0  0  2  0  0  0  0  0  0
    0.6244   -1.9255   -3.7918 Si  0  0  0  0  0  4  0  0  0  0  0  0
    1.9760   -2.2514   -3.2780 H   0  0  0  0  0  0  0  0  0  0  0  0
   -0.2850   -2.9261   -3.1616 H   0  0  0  0  0  0  0  0  0  0  0  0
    0.3938    1.5112   -4.6270 Si  0  0  0  0  0  4  0  0  0  0  0  0
    1.6772    2.1949   -4.3398 H   0  0  0  0  0  0  0  0  0  0  0  0
    0.5037    0.8914   -5.9473 H   0  0  0  0  0  0  0  0  0  0  0  0
    0.5649   -2.2488   -5.9729 Si  0  0  0  0  0  4  0  0  0  0  0  0
   -0.7430   -1.8817   -6.5177 H   0  0  0  0  0  0  0  0  0  0  0  0
    0.7212   -3.7113   -6.2225 H   0  0  0  0  0  0  0  0  0  0  0  0
   -1.2160    3.0844   -4.6016 Si  0  0  0  0  0  4  0  0  0  0  0  0
   -1.1416    3.8221   -3.3569 H   0  0  0  0  0  0  0  0  0  0  0  0
   -1.0131    3.9922   -5.7313 H   0  0  0  0  0  0  0  0  0  0  0  0
   -3.2245    2.0940   -4.7166 Si  0  0  0  0  0  4  0  0  0  0  0  0
   -3.5557    1.6442   -3.3534 H   0  0  0  0  0  0  0  0  0  0  0  0
   -4.2357    3.0596   -5.1859 H   0  0  0  0  0  0  0  0  0  0  0  0
    2.1703   -1.2030   -7.0661 Si  0  0  0  0  0  4  0  0  0  0  0  0
    3.3345   -2.1082   -7.2830 H   0  0  0  0  0  0  0  0  0  0  0  0
    2.6788   -0.0239   -6.3864 H   0  0  0  0  0  0  0  0  0  0  0  0
    1.3969   -0.6983   -9.1227 Si  0  0  0  0  0  4  0  0  0  0  0  0
    2.3689   -1.0192  -10.1510 H   0  0  0  0  0  0  0  0  0  0  0  0
    0.1764   -1.4993   -9.4154 H   0  0  0  0  0  0  0  0  0  0  0  0
   -3.1104    0.3880   -6.1486 Si  0  0  0  0  0  4  0  0  0  0  0  0
   -3.2697   -0.8571   -5.3553 H   0  0  0  0  0  0  0  0  0  0  0  0
   -1.7805    0.3245   -6.7569 H   0  0  0  0  0  0  0  0  0  0  0  0
    0.7684    1.4510   -9.1950 Si  0  0  0  0  0  4  0  0  0  0  0  0
    0.0427    1.6534  -10.4572 H   0  0  0  0  0  0  0  0  0  0  0  0
   -0.1904    1.6751   -8.1069 H   0  0  0  0  0  0  0  0  0  0  0  0
   -4.7186    0.4953   -7.6596 Si  0  0  0  0  0  4  0  0  0  0  0  0
   -5.7368    1.4418   -7.2030 H   0  0  0  0  0  0  0  0  0  0  0  0
   -5.3421   -0.8360   -7.8764 H   0  0  0  0  0  0  0  0  0  0  0  0
   -3.9757    1.1965   -9.6410 Si  0  0  0  0  0  4  0  0  0  0  0  0
   -2.8535    0.3923  -10.1174 H   0  0  0  0  0  0  0  0  0  0  0  0
   -5.1118    1.0874  -10.5918 H   0  0  0  0  0  0  0  0  0  0  0  0
   -3.6073    2.6248   -9.6147 H   0  0  0  0  0  0  0  0  0  0  0  0
    2.5150    2.8045   -8.9891 Si  0  0  0  0  0  4  0  0  0  0  0  0
    2.6800    3.1306   -7.5723 H   0  0  0  0  0  0  0  0  0  0  0  0
    2.2234    4.0443   -9.7106 H   0  0  0  0  0  0  0  0  0  0  0  0
    3.7488    2.2081   -9.4931 H   0  0  0  0  0  0  0  0  0  0  0  0
  1  2  1  0
  1  5  1  0
  2  3  1  0
  2  4  1  0
  2  8  1  0
  5  6  1  0
  5  7  1  0
  5 11  1  0
  8  9  1  0
  8 10  1  0
  8 17  1  0
 11 12  1  0
 11 13  1  0
 11 14  1  0
 14 15  1  0
 14 16  1  0
 14 23  1  0
 17 18  1  0
 17 19  1  0
 17 20  1  0
 20 21  1  0
 20 22  1  0
 20 26  1  0
 23 24  1  0
 23 25  1  0
 23 29  1  0
 26 27  1  0
 26 28  1  0
 26 36  1  0
 29 30  1  0
 29 31  1  0
 29 32  1  0
 32 33  1  0
 32 34  1  0
 32 35  1  0
 36 37  1  0
 36 38  1  0
 36 39  1  0
M  CHG  1   1   1
M  RAD  1   1   2
M  END
$$$$

     RDKit          3D

 39 38  0  0  0  0  0  0  0  0999 V2000
   -0.0337   -0.0036   -3.1992 S   0  0  0  0  0  2  0  0  0  0  0  0
   -2.1244   -0.0423   -3.6362 Si  0  0  0  0  0  4  0  0  0  0  0  0
   -2.8383    0.7535   -2.6178 H   0  0  0  0  0  0  0  0  0  0  0  0
   -2.6138   -1.4141   -3.5283 H   0  0  0  0  0  0  0  0  0  0  0  0
    0.9944   -1.6563   -4.1155 Si  0  0  0  0  0  4  0  0  0  0  0  0
    1.9834   -1.2101   -5.0940 H   0  0  0  0  0  0  0  0  0  0  0  0
    1.6812   -2.3852   -3.0213 H   0  0  0  0  0  0  0  0  0  0  0  0
   -2.4999    0.8125   -5.6781 Si  0  0  0  0  0  4  0  0  0  0  0  0
   -3.1843   -0.1621   -6.5220 H   0  0  0  0  0  0  0  0  0  0  0  0
   -3.3895    1.9905   -5.5346 H   0  0  0  0  0  0  0  0  0  0  0  0
   -0.4867   -3.0511   -5.0114 Si  0  0  0  0  0  4  0  0  0  0  0  0
   -1.7838   -2.3592   -5.2156 H   0  0  0  0  0  0  0  0  0  0  0  0
   -0.7272   -4.2045   -4.1389 H   0  0  0  0  0  0  0  0  0  0  0  0
    0.2044   -3.7671   -7.0356 Si  0  0  0  0  0  4  0  0  0  0  0  0
    1.0563   -2.7790   -7.6828 H   0  0  0  0  0  0  0  0  0  0  0  0
    1.0512   -4.9615   -6.7690 H   0  0  0  0  0  0  0  0  0  0  0  0
   -0.5571    1.4400   -6.5810 Si  0  0  0  0  0  4  0  0  0  0  0  0
    0.5036    0.6453   -5.9365 H   0  0  0  0  0  0  0  0  0  0  0  0
   -0.3621    2.8663   -6.2397 H   0  0  0  0  0  0  0  0  0  0  0  0
   -0.5534    1.1644   -8.7918 Si  0  0  0  0  0  4  0  0  0  0  0  0
   -0.5256    2.4866   -9.4609 H   0  0  0  0  0  0  0  0  0  0  0  0
   -1.7856    0.4774   -9.2455 H   0  0  0  0  0  0  0  0  0  0  0  0
   -1.5774   -4.3242   -8.2006 Si  0  0  0  0  0  4  0  0  0  0  0  0
   -1.9057   -5.7427   -7.9909 H   0  0  0  0  0  0  0  0  0  0  0  0
   -2.7347   -3.5139   -7.7353 H   0  0  0  0  0  0  0  0  0  0  0  0
    1.2690    0.0459   -9.3761 Si  0  0  0  0  0  4  0  0  0  0  0  0
    0.9699   -1.3584   -9.7139 H   0  0  0  0  0  0  0  0  0  0  0  0
    2.2258    0.0183   -8.2538 H   0  0  0  0  0  0  0  0  0  0  0  0
   -1.3385   -3.9906  -10.3809 Si  0  0  0  0  0  4  0  0  0  0  0  0
   -0.7491   -2.7063  -10.7081 H   0  0  0  0  0  0  0  0  0  0  0  0
   -0.5303   -5.0455  -11.0101 H   0  0  0  0  0  0  0  0  0  0  0  0
   -3.4149   -4.0486  -11.2614 Si  0  0  0  0  0  4  0  0  0  0  0  0
   -4.2504   -3.2007  -10.3672 H   0  0  0  0  0  0  0  0  0  0  0  0
   -3.4268   -3.5750  -12.6300 H   0  0  0  0  0  0  0  0  0  0  0  0
   -3.9539   -5.4205  -11.1233 H   0  0  0  0  0  0  0  0  0  0  0  0
    2.2861    0.9556  -11.1341 Si  0  0  0  0  0  4  0  0  0  0  0  0
    3.4394    0.1079  -11.4711 H   0  0  0  0  0  0  0  0  0  0  0  0
    1.4062    0.9804  -12.3031 H   0  0  0  0  0  0  0  0  0  0  0  0
    2.8036    2.2807  -10.7980 H   0  0  0  0  0  0  0  0  0  0  0  0
  1  2  1  0
  1  5  1  0
  2  3  1  0
  2  4  1  0
  2  8  1  0
  5  6  1  0
  5  7  1  0
  5 11  1  0
  8  9  1  0
  8 10  1  0
  8 17  1  0
 11 12  1  0
 11 13  1  0
 11 14  1  0
 14 15  1  0
 14 16  1  0
 14 23  1  0
 17 18  1  0
 17 19  1  0
 17 20  1  0
 20 21  1  0
 20 22  1  0
 20 26  1  0
 23 24  1  0
 23 25  1  0
 23 29  1  0
 26 27  1  0
 26 28  1  0
 26 36  1  0
 29 30  1  0
 29 31  1  0
 29 32  1  0
 32 33  1  0
 32 34  1  0
 32 35  1  0
 36 37  1  0
 36 38  1  0
 36 39  1  0
M  CHG  1   1   1
M  RAD  1   1   2
M  END
$$$$

     RDKit          3D

 39 38  0  0  0  0  0  0  0  0999 V2000
   -0.0337   -0.0036   -3.1992 S   0  0  0  0  0  2  0  0  0  0  0  0
   -1.7602    1.0720   -3.7822 Si  0  0  0  0  0  4  0  0  0  0  0  0
   -3.0110    0.4760   -3.2556 H   0  0  0  0  0  0  0  0  0  0  0  0
   -1.6790    2.4247   -3.1584 H   0  0  0  0  0  0  0  0  0  0  0  0
    0.5767   -1.4556   -4.6259 Si  0  0  0  0  0  4  0  0  0  0  0  0
    0.0129   -2.7937   -4.3284 H   0  0  0  0  0  0  0  0  0  0  0  0
    0.0901   -1.0490   -5.9440 H   0  0  0  0  0  0  0  0  0  0  0  0
   -1.9356    1.3514   -5.9632 Si  0  0  0  0  0  4  0  0  0  0  0  0
   -0.6930    1.8876   -6.5204 H   0  0  0  0  0  0  0  0  0  0  0  0
   -2.9802    2.3877   -6.2086 H   0  0  0  0  0  0  0  0  0  0  0  0
    2.8180   -1.6634   -4.6181 Si  0  0  0  0  0  4  0  0  0  0  0  0
    3.2351   -2.2779   -3.3740 H   0  0  0  0  0  0  0  0  0  0  0  0
    3.2230   -2.5011   -5.7475 H   0  0  0  0  0  0  0  0  0  0  0  0
    3.7532    0.3703   -4.7493 Si  0  0  0  0  0  4  0  0  0  0  0  0
    3.7383    0.9342   -3.3884 H   0  0  0  0  0  0  0  0  0  0  0  0
    5.1429    0.2553   -5.2296 H   0  0  0  0  0  0  0  0  0  0  0  0
   -2.5327   -0.4768   -7.0437 Si  0  0  0  0  0  4  0  0  0  0  0  0
   -4.0088   -0.5079   -7.2484 H   0  0  0  0  0  0  0  0  0  0  0  0
   -2.1793   -1.7099   -6.3617 H   0  0  0  0  0  0  0  0  0  0  0  0
   -1.6310   -0.3904   -9.1082 Si  0  0  0  0  0  4  0  0  0  0  0  0
   -2.5965   -0.7577  -10.1270 H   0  0  0  0  0  0  0  0  0  0  0  0
   -1.1900    0.9993   -9.4104 H   0  0  0  0  0  0  0  0  0  0  0  0
    2.5783    1.6175   -6.1770 Si  0  0  0  0  0  4  0  0  0  0  0  0
    1.9243    2.6882   -5.3830 H   0  0  0  0  0  0  0  0  0  0  0  0
    1.5004    0.8266   -6.7732 H   0  0  0  0  0  0  0  0  0  0  0  0
    0.2103   -1.6642   -9.1902 Si  0  0  0  0  0  4  0  0  0  0  0  0
    0.8910   -1.3697  -10.4593 H   0  0  0  0  0  0  0  0  0  0  0  0
    1.1051   -1.2297   -8.1112 H   0  0  0  0  0  0  0  0  0  0  0  0
    3.8825    2.5406   -7.7028 Si  0  0  0  0  0  4  0  0  0  0  0  0
    5.2732    2.4487   -7.2571 H   0  0  0  0  0  0  0  0  0  0  0  0
    3.5264    3.9664   -7.9227 H   0  0  0  0  0  0  0  0  0  0  0  0
    3.7309    1.5197   -9.6787 Si  0  0  0  0  0  4  0  0  0  0  0  0
    2.3489    1.4355  -10.1434 H   0  0  0  0  0  0  0  0  0  0  0  0
    4.5367    2.3160  -10.6395 H   0  0  0  0  0  0  0  0  0  0  0  0
    4.3446    0.1784   -9.6517 H   0  0  0  0  0  0  0  0  0  0  0  0
   -0.2920   -3.8147   -8.9710 Si  0  0  0  0  0  4  0  0  0  0  0  0
   -0.2031   -4.1658   -7.5534 H   0  0  0  0  0  0  0  0  0  0  0  0
    0.7094   -4.5970   -9.6975 H   0  0  0  0  0  0  0  0  0  0  0  0
   -1.6300   -4.1307   -9.4627 H   0  0  0  0  0  0  0  0  0  0  0  0
  1  2  1  0
  1  5  1  0
  2  3  1  0
  2  4  1  0
  2  8  1  0
  5  6  1  0
  5  7  1  0
  5 11  1  0
  8  9  1  0
  8 10  1  0
  8 17  1  0
 11 12  1  0
 11 13  1  0
 11 14  1  0
 14 15  1  0
 14 16  1  0
 14 23  1  0
 17 18  1  0
 17 19  1  0
 17 20  1  0
 20 21  1  0
 20 22  1  0
 20 26  1  0
 23 24  1  0
 23 25  1  0
 23 29  1  0
 26 27  1  0
 26 28  1  0
 26 36  1  0
 29 30  1  0
 29 31  1  0
 29 32  1  0
 32 33  1  0
 32 34  1  0
 32 35  1  0
 36 37  1  0
 36 38  1  0
 36 39  1  0
M  CHG  1   1   1
M  RAD  1   1   2
M  END
$$$$

     RDKit          3D

 39 38  0  0  0  0  0  0  0  0999 V2000
   -0.0337   -0.0036   -3.1992 S   0  0  0  0  0  2  0  0  0  0  0  0
   -2.0855    0.3989   -3.6367 Si  0  0  0  0  0  4  0  0  0  0  0  0
   -2.6156    1.3284   -2.6193 H   0  0  0  0  0  0  0  0  0  0  0  0
   -2.8532   -0.8388   -3.5276 H   0  0  0  0  0  0  0  0  0  0  0  0
    0.6229   -1.8369   -4.1136 Si  0  0  0  0  0  4  0  0  0  0  0  0
    1.6838   -1.6102   -5.0922 H   0  0  0  0  0  0  0  0  0  0  0  0
    1.1405   -2.6930   -3.0185 H   0  0  0  0  0  0  0  0  0  0  0  0
   -2.2723    1.3115   -5.6795 Si  0  0  0  0  0  4  0  0  0  0  0  0
   -3.1468    0.5023   -6.5226 H   0  0  0  0  0  0  0  0  0  0  0  0
   -2.8936    2.6507   -5.5374 H   0  0  0  0  0  0  0  0  0  0  0  0
   -1.1190   -2.8890   -5.0085 Si  0  0  0  0  0  4  0  0  0  0  0  0
   -2.2411   -1.9394   -5.2137 H   0  0  0  0  0  0  0  0  0  0  0  0
   -1.5973   -3.9649   -4.1349 H   0  0  0  0  0  0  0  0  0  0  0  0
   -0.5943   -3.7367   -7.0317 Si  0  0  0  0  0  4  0  0  0  0  0  0
    0.4468   -2.9511   -7.6797 H   0  0  0  0  0  0  0  0  0  0  0  0
   -0.0184   -5.0825   -6.7637 H   0  0  0  0  0  0  0  0  0  0  0  0
   -0.2408    1.5144   -6.5825 Si  0  0  0  0  0  4  0  0  0  0  0  0
    0.6284    0.5146   -5.9370 H   0  0  0  0  0  0  0  0  0  0  0  0
    0.2505    2.8679   -6.2427 H   0  0  0  0  0  0  0  0  0  0  0  0
   -0.2953    1.2419   -8.7931 Si  0  0  0  0  0  4  0  0  0  0  0  0
    0.0107    2.5279   -9.4635 H   0  0  0  0  0  0  0  0  0  0  0  0
   -1.6446    0.8297   -9.2464 H   0  0  0  0  0  0  0  0  0  0  0  0
   -2.4535   -3.9068   -8.1967 Si  0  0  0  0  0  4  0  0  0  0  0  0
   -3.0735   -5.2240   -7.9856 H   0  0  0  0  0  0  0  0  0  0  0  0
   -3.4140   -2.8702   -7.7324 H   0  0  0  0  0  0  0  0  0  0  0  0
    1.2504   -0.2363   -9.3758 Si  0  0  0  0  0  4  0  0  0  0  0  0
    0.6619   -1.5463   -9.7122 H   0  0  0  0  0  0  0  0  0  0  0  0
    2.1798   -0.4638   -8.2533 H   0  0  0  0  0  0  0  0  0  0  0  0
   -2.1495   -3.6334  -10.3772 Si  0  0  0  0  0  4  0  0  0  0  0  0
   -1.3026   -2.5025  -10.7056 H   0  0  0  0  0  0  0  0  0  0  0  0
   -1.5819   -4.8356  -11.0051 H   0  0  0  0  0  0  0  0  0  0  0  0
   -4.1915   -3.2532  -11.2582 Si  0  0  0  0  0  4  0  0  0  0  0  0
   -4.8294   -2.2472  -10.3651 H   0  0  0  0  0  0  0  0  0  0  0  0
   -4.1033   -2.7892  -12.6272 H   0  0  0  0  0  0  0  0  0  0  0  0
   -5.0077   -4.4805  -11.1188 H   0  0  0  0  0  0  0  0  0  0  0  0
    2.4365    0.4367  -11.1345 Si  0  0  0  0  0  4  0  0  0  0  0  0
    3.3851   -0.6355  -11.4704 H   0  0  0  0  0  0  0  0  0  0  0  0
    1.5817    0.6452  -12.3038 H   0  0  0  0  0  0  0  0  0  0  0  0
    3.2217    1.6232  -10.7996 H   0  0  0  0  0  0  0  0  0  0  0  0
  1  2  1  0
  1  5  1  0
  2  3  1  0
  2  4  1  0
  2  8  1  0
  5  6  1  0
  5  7  1  0
  5 11  1  0
  8  9  1  0
  8 10  1  0
  8 17  1  0
 11 12  1  0
 11 13  1  0
 11 14  1  0
 14 15  1  0
 14 16  1  0
 14 23  1  0
 17 18  1  0
 17 19  1  0
 17 20  1  0
 20 21  1  0
 20 22  1  0
 20 26  1  0
 23 24  1  0
 23 25  1  0
 23 29  1  0
 26 27  1  0
 26 28  1  0
 26 36  1  0
 29 30  1  0
 29 31  1  0
 29 32  1  0
 32 33  1  0
 32 34  1  0
 32 35  1  0
 36 37  1  0
 36 38  1  0
 36 39  1  0
M  CHG  1   1   1
M  RAD  1   1   2
M  END
$$$$
