
     RDKit          3D

 39 38  0  0  0  0  0  0  0  0999 V2000
   -0.1097   -0.0201    3.1004 S   0  0  0  0  0  2  0  0  0  0  0  0
    0.2304    1.8150    4.0988 Si  0  0  0  0  0  4  0  0  0  0  0  0
    0.7247    2.7987    3.0984 H   0  0  0  0  0  0  0  0  0  0  0  0
   -1.0228    2.3333    4.6518 H   0  0  0  0  0  0  0  0  0  0  0  0
    0.4450   -1.7209    4.2492 Si  0  0  0  0  0  4  0  0  0  0  0  0
    1.3995   -2.5200    3.4312 H   0  0  0  0  0  0  0  0  0  0  0  0
    1.0278   -1.3777    5.5422 H   0  0  0  0  0  0  0  0  0  0  0  0
    1.7249    1.6753    5.7140 Si  0  0  0  0  0  4  0  0  0  0  0  0
    1.0904    1.4412    7.0365 H   0  0  0  0  0  0  0  0  0  0  0  0
    2.5994    0.4931    5.4804 H   0  0  0  0  0  0  0  0  0  0  0  0
   -1.3232   -3.0575    4.6217 Si  0  0  0  0  0  4  0  0  0  0  0  0
   -0.9314   -4.4711    4.4904 H   0  0  0  0  0  0  0  0  0  0  0  0
   -2.4136   -2.7618    3.6735 H   0  0  0  0  0  0  0  0  0  0  0  0
   -2.0649   -2.7792    6.7210 Si  0  0  0  0  0  4  0  0  0  0  0  0
   -1.3961   -3.7700    7.5972 H   0  0  0  0  0  0  0  0  0  0  0  0
   -3.5101   -2.9266    6.7274 H   0  0  0  0  0  0  0  0  0  0  0  0
    3.0136    3.4560    5.8755 Si  0  0  0  0  0  4  0  0  0  0  0  0
    4.0315    3.4161    4.8176 H   0  0  0  0  0  0  0  0  0  0  0  0
    3.6998    3.4732    7.1677 H   0  0  0  0  0  0  0  0  0  0  0  0
    1.8814    5.3583    5.6692 Si  0  0  0  0  0  4  0  0  0  0  0  0
    1.1824    5.4377    4.3795 H   0  0  0  0  0  0  0  0  0  0  0  0
    2.8730    6.4627    5.6716 H   0  0  0  0  0  0  0  0  0  0  0  0
   -1.4297   -0.7278    7.3819 Si  0  0  0  0  0  4  0  0  0  0  0  0
   -2.0579    0.2304    6.4767 H   0  0  0  0  0  0  0  0  0  0  0  0
    0.0392   -0.6993    7.3135 H   0  0  0  0  0  0  0  0  0  0  0  0
    0.4633    5.6886    7.3308 Si  0  0  0  0  0  4  0  0  0  0  0  0
   -0.9481    5.6494    6.8586 H   0  0  0  0  0  0  0  0  0  0  0  0
    0.6380    7.0524    7.9076 H   0  0  0  0  0  0  0  0  0  0  0  0
   -2.0161   -0.3484    9.4951 Si  0  0  0  0  0  4  0  0  0  0  0  0
   -2.9189    0.8042    9.5216 H   0  0  0  0  0  0  0  0  0  0  0  0
   -0.8625   -0.0187   10.3430 H   0  0  0  0  0  0  0  0  0  0  0  0
   -3.0081   -2.1958   10.2796 Si  0  0  0  0  0  4  0  0  0  0  0  0
   -3.3630   -2.0254   11.6771 H   0  0  0  0  0  0  0  0  0  0  0  0
   -2.0541   -3.3012   10.1153 H   0  0  0  0  0  0  0  0  0  0  0  0
   -4.1770   -2.4699    9.4364 H   0  0  0  0  0  0  0  0  0  0  0  0
    0.7315    4.2129    8.9817 Si  0  0  0  0  0  4  0  0  0  0  0  0
   -0.3696    3.2504    8.9461 H   0  0  0  0  0  0  0  0  0  0  0  0
    0.7348    4.8741   10.2980 H   0  0  0  0  0  0  0  0  0  0  0  0
    2.0421    3.5606    8.8310 H   0  0  0  0  0  0  0  0  0  0  0  0
  1  2  1  0
  1  5  1  0
  2  3  1  0
  2  4  1  0
  2  8  1  0
  5  6  1  0
  5  7  1  0
  5 11  1  0
  8  9  1  0
  8 10  1  0
  8 17  1  0
 11 12  1  0
 11 13  1  0
 11 14  1  0
 14 15  1  0
 14 16  1  0
 14 23  1  0
 17 18  1  0
 17 19  1  0
 17 20  1  0
 20 21  1  0
 20 22  1  0
 20 26  1  0
 23 24  1  0
 23 25  1  0
 23 29  1  0
 26 27  1  0
 26 28  1  0
 26 36  1  0
 29 30  1  0
 29 31  1  0
 29 32  1  0
 32 33  1  0
 32 34  1  0
 32 35  1  0
 36 37  1  0
 36 38  1  0
 36 39  1  0
M  CHG  1   1   1
M  RAD  1   1   2
M  END
$$$$

     RDKit          3D

 39 38  0  0  0  0  0  0  0  0999 V2000
   -0.1097   -0.0201    3.1004 S   0  0  0  0  0  2  0  0  0  0  0  0
    0.5501    1.7217    4.1058 Si  0  0  0  0  0  4  0  0  0  0  0  0
    1.2077    2.6078    3.1083 H   0  0  0  0  0  0  0  0  0  0  0  0
   -0.5912    2.4498    4.6647 H   0  0  0  0  0  0  0  0  0  0  0  0
    0.1394   -1.7974    4.2401 Si  0  0  0  0  0  4  0  0  0  0  0  0
    0.9368   -2.7481    3.4159 H   0  0  0  0  0  0  0  0  0  0  0  0
    0.7763   -1.5684    5.5329 H   0  0  0  0  0  0  0  0  0  0  0  0
    2.0000    1.3134    5.7160 Si  0  0  0  0  0  4  0  0  0  0  0  0
    1.3371    1.1882    7.0394 H   0  0  0  0  0  0  0  0  0  0  0  0
    2.6524   -0.0031    5.4747 H   0  0  0  0  0  0  0  0  0  0  0  0
   -1.8356   -2.8038    4.6120 Si  0  0  0  0  0  4  0  0  0  0  0  0
   -1.6989   -4.2638    4.4733 H   0  0  0  0  0  0  0  0  0  0  0  0
   -2.8589   -2.3163    3.6683 H   0  0  0  0  0  0  0  0  0  0  0  0
   -2.5124   -2.4096    6.7146 Si  0  0  0  0  0  4  0  0  0  0  0  0
   -2.0265   -3.5067    7.5845 H   0  0  0  0  0  0  0  0  0  0  0  0
   -3.9609   -2.3003    6.7245 H   0  0  0  0  0  0  0  0  0  0  0  0
    3.5824    2.8387    5.8815 Si  0  0  0  0  0  4  0  0  0  0  0  0
    4.5751    2.6255    4.8206 H   0  0  0  0  0  0  0  0  0  0  0  0
    4.2636    2.7287    7.1719 H   0  0  0  0  0  0  0  0  0  0  0  0
    2.8021    4.9116    5.6869 Si  0  0  0  0  0  4  0  0  0  0  0  0
    2.1254    5.1190    4.3996 H   0  0  0  0  0  0  0  0  0  0  0  0
    3.9726    5.8243    5.6913 H   0  0  0  0  0  0  0  0  0  0  0  0
   -1.5247   -0.5051    7.3826 Si  0  0  0  0  0  4  0  0  0  0  0  0
   -1.9764    0.5531    6.4834 H   0  0  0  0  0  0  0  0  0  0  0  0
   -0.0739   -0.7352    7.3101 H   0  0  0  0  0  0  0  0  0  0  0  0
    1.4678    5.4783    7.3541 Si  0  0  0  0  0  4  0  0  0  0  0  0
    0.0706    5.6903    6.8858 H   0  0  0  0  0  0  0  0  0  0  0  0
    1.8810    6.7872    7.9363 H   0  0  0  0  0  0  0  0  0  0  0  0
   -2.0308   -0.0386    9.4991 Si  0  0  0  0  0  4  0  0  0  0  0  0
   -2.7166    1.2547    9.5333 H   0  0  0  0  0  0  0  0  0  0  0  0
   -0.8353    0.0788   10.3451 H   0  0  0  0  0  0  0  0  0  0  0  0
   -3.3307   -1.6864   10.2784 Si  0  0  0  0  0  4  0  0  0  0  0  0
   -3.6472   -1.4629   11.6776 H   0  0  0  0  0  0  0  0  0  0  0  0
   -2.5864   -2.9416   10.1065 H   0  0  0  0  0  0  0  0  0  0  0  0
   -4.5314   -1.7465    9.4374 H   0  0  0  0  0  0  0  0  0  0  0  0
    1.4755    3.9704    8.9977 Si  0  0  0  0  0  4  0  0  0  0  0  0
    0.2222    3.2170    8.9610 H   0  0  0  0  0  0  0  0  0  0  0  0
    1.5979    4.6144   10.3169 H   0  0  0  0  0  0  0  0  0  0  0  0
    2.6506    3.0984    8.8403 H   0  0  0  0  0  0  0  0  0  0  0  0
  1  2  1  0
  1  5  1  0
  2  3  1  0
  2  4  1  0
  2  8  1  0
  5  6  1  0
  5  7  1  0
  5 11  1  0
  8  9  1  0
  8 10  1  0
  8 17  1  0
 11 12  1  0
 11 13  1  0
 11 14  1  0
 14 15  1  0
 14 16  1  0
 14 23  1  0
 17 18  1  0
 17 19  1  0
 17 20  1  0
 20 21  1  0
 20 22  1  0
 20 26  1  0
 23 24  1  0
 23 25  1  0
 23 29  1  0
 26 27  1  0
 26 28  1  0
 26 36  1  0
 29 30  1  0
 29 31  1  0
 29 32  1  0
 32 33  1  0
 32 34  1  0
 32 35  1  0
 36 37  1  0
 36 38  1  0
 36 39  1  0
M  CHG  1   1   1
M  RAD  1   1   2
M  END
$$$$

     RDKit          3D

 39 38  0  0  0  0  0  0  0  0999 V2000
   -0.1097   -0.0201    3.1004 S   0  0  0  0  0  2  0  0  0  0  0  0
    0.8089   -1.2685    4.5822 Si  0  0  0  0  0  4  0  0  0  0  0  0
   -0.1750   -1.5115    5.6376 H   0  0  0  0  0  0  0  0  0  0  0  0
    1.2082   -2.5245    3.9421 H   0  0  0  0  0  0  0  0  0  0  0  0
   -1.1188    1.6390    4.0329 Si  0  0  0  0  0  4  0  0  0  0  0  0
   -1.1672    2.7789    3.0854 H   0  0  0  0  0  0  0  0  0  0  0  0
   -0.3162    2.1074    5.1846 H   0  0  0  0  0  0  0  0  0  0  0  0
    2.5785   -0.2355    5.4930 Si  0  0  0  0  0  4  0  0  0  0  0  0
    2.5062    1.2267    5.2711 H   0  0  0  0  0  0  0  0  0  0  0  0
    3.7678   -0.6984    4.7386 H   0  0  0  0  0  0  0  0  0  0  0  0
   -3.1474    1.0498    4.7183 Si  0  0  0  0  0  4  0  0  0  0  0  0
   -4.1198    1.9488    4.0686 H   0  0  0  0  0  0  0  0  0  0  0  0
   -3.4602   -0.3419    4.3686 H   0  0  0  0  0  0  0  0  0  0  0  0
   -3.3229    1.3891    6.9243 Si  0  0  0  0  0  4  0  0  0  0  0  0
   -4.6869    1.1109    7.3821 H   0  0  0  0  0  0  0  0  0  0  0  0
   -3.0798    2.8421    7.1446 H   0  0  0  0  0  0  0  0  0  0  0  0
    2.7638   -0.7017    7.6565 Si  0  0  0  0  0  4  0  0  0  0  0  0
    4.1341   -1.1729    7.9251 H   0  0  0  0  0  0  0  0  0  0  0  0
    1.8194   -1.7346    8.0843 H   0  0  0  0  0  0  0  0  0  0  0  0
    2.4282    1.1224    8.9057 Si  0  0  0  0  0  4  0  0  0  0  0  0
    3.4332    2.1575    8.6076 H   0  0  0  0  0  0  0  0  0  0  0  0
    1.1105    1.7058    8.6664 H   0  0  0  0  0  0  0  0  0  0  0  0
   -1.8105    0.2671    8.0642 Si  0  0  0  0  0  4  0  0  0  0  0  0
   -0.5014    0.4269    7.3900 H   0  0  0  0  0  0  0  0  0  0  0  0
   -1.6607    0.8970    9.3938 H   0  0  0  0  0  0  0  0  0  0  0  0
    2.6270    0.5335   11.0448 Si  0  0  0  0  0  4  0  0  0  0  0  0
    3.5076   -0.6439   11.1216 H   0  0  0  0  0  0  0  0  0  0  0  0
    3.2552    1.6343   11.7759 H   0  0  0  0  0  0  0  0  0  0  0  0
   -2.2488   -1.8752    8.2697 Si  0  0  0  0  0  4  0  0  0  0  0  0
   -1.5647   -2.3793    9.4949 H   0  0  0  0  0  0  0  0  0  0  0  0
   -1.6626   -2.6407    7.1480 H   0  0  0  0  0  0  0  0  0  0  0  0
   -4.4014   -2.3296    8.4532 Si  0  0  0  0  0  4  0  0  0  0  0  0
   -4.7951   -3.3856    7.4880 H   0  0  0  0  0  0  0  0  0  0  0  0
   -5.2664   -1.1789    8.2258 H   0  0  0  0  0  0  0  0  0  0  0  0
   -4.7334   -2.8640    9.7962 H   0  0  0  0  0  0  0  0  0  0  0  0
    0.6735   -0.0145   11.9447 Si  0  0  0  0  0  4  0  0  0  0  0  0
   -0.3322   -0.3662   10.9471 H   0  0  0  0  0  0  0  0  0  0  0  0
    0.1747    1.0952   12.7876 H   0  0  0  0  0  0  0  0  0  0  0  0
    0.8239   -1.1924   12.8344 H   0  0  0  0  0  0  0  0  0  0  0  0
  1  2  1  0
  1  5  1  0
  2  3  1  0
  2  4  1  0
  2  8  1  0
  5  6  1  0
  5  7  1  0
  5 11  1  0
  8  9  1  0
  8 10  1  0
  8 17  1  0
 11 12  1  0
 11 13  1  0
 11 14  1  0
 14 15  1  0
 14 16  1  0
 14 23  1  0
 17 18  1  0
 17 19  1  0
 17 20  1  0
 20 21  1  0
 20 22  1  0
 20 26  1  0
 23 24  1  0
 23 25  1  0
 23 29  1  0
 26 27  1  0
 26 28  1  0
 26 36  1  0
 29 30  1  0
 29 31  1  0
 29 32  1  0
 32 33  1  0
 32 34  1  0
 32 35  1  0
 36 37  1  0
 36 38  1  0
 36 39  1  0
M  CHG  1   1   1
M  RAD  1   1   2
M  END
$$$$

     RDKit          3D

 39 38  0  0  0  0  0  0  0  0999 V2000
   -0.1097   -0.0201    3.1004 S   0  0  0  0  0  2  0  0  0  0  0  0
   -1.2698   -1.0495    4.5414 Si  0  0  0  0  0  4  0  0  0  0  0  0
   -1.9304   -2.1996    3.8595 H   0  0  0  0  0  0  0  0  0  0  0  0
   -0.4992   -1.6045    5.6411 H   0  0  0  0  0  0  0  0  0  0  0  0
    1.6147    0.9202    3.9383 Si  0  0  0  0  0  4  0  0  0  0  0  0
    2.5525   -0.0335    4.5253 H   0  0  0  0  0  0  0  0  0  0  0  0
    2.3319    1.5864    2.8212 H   0  0  0  0  0  0  0  0  0  0  0  0
   -2.9181    0.2898    5.2490 Si  0  0  0  0  0  4  0  0  0  0  0  0
   -3.8796    0.4059    4.1218 H   0  0  0  0  0  0  0  0  0  0  0  0
   -2.4409    1.6371    5.5331 H   0  0  0  0  0  0  0  0  0  0  0  0
    1.0838    2.4916    5.4145 Si  0  0  0  0  0  4  0  0  0  0  0  0
   -0.3488    2.8044    5.3911 H   0  0  0  0  0  0  0  0  0  0  0  0
    1.7885    3.7727    5.1241 H   0  0  0  0  0  0  0  0  0  0  0  0
    1.6801    1.9062    7.4921 Si  0  0  0  0  0  4  0  0  0  0  0  0
    3.0017    1.2826    7.5090 H   0  0  0  0  0  0  0  0  0  0  0  0
    0.6920    0.9409    7.9985 H   0  0  0  0  0  0  0  0  0  0  0  0
   -3.9462   -0.5271    7.0257 Si  0  0  0  0  0  4  0  0  0  0  0  0
   -4.3630    0.6001    7.8932 H   0  0  0  0  0  0  0  0  0  0  0  0
   -5.1962   -1.1917    6.5826 H   0  0  0  0  0  0  0  0  0  0  0  0
   -2.7376   -2.0033    8.1321 Si  0  0  0  0  0  4  0  0  0  0  0  0
   -1.5279   -2.3708    7.3756 H   0  0  0  0  0  0  0  0  0  0  0  0
   -3.4927   -3.2423    8.4265 H   0  0  0  0  0  0  0  0  0  0  0  0
    1.6087    3.7299    8.7940 Si  0  0  0  0  0  4  0  0  0  0  0  0
    0.3764    3.7515    9.6085 H   0  0  0  0  0  0  0  0  0  0  0  0
    1.5536    4.9363    7.9386 H   0  0  0  0  0  0  0  0  0  0  0  0
   -2.0388   -1.2006   10.1102 Si  0  0  0  0  0  4  0  0  0  0  0  0
   -1.3305    0.0777    9.9425 H   0  0  0  0  0  0  0  0  0  0  0  0
   -3.1621   -1.0507   11.0438 H   0  0  0  0  0  0  0  0  0  0  0  0
    3.3524    3.7993   10.1726 Si  0  0  0  0  0  4  0  0  0  0  0  0
    4.6084    3.5239    9.4761 H   0  0  0  0  0  0  0  0  0  0  0  0
    3.0951    2.8520   11.2707 H   0  0  0  0  0  0  0  0  0  0  0  0
    3.4958    5.8366   11.0795 Si  0  0  0  0  0  4  0  0  0  0  0  0
    3.9187    6.8425   10.1059 H   0  0  0  0  0  0  0  0  0  0  0  0
    2.2468    6.2313   11.7366 H   0  0  0  0  0  0  0  0  0  0  0  0
    4.5575    5.7767   12.1146 H   0  0  0  0  0  0  0  0  0  0  0  0
   -0.5261   -2.6688   10.9000 Si  0  0  0  0  0  4  0  0  0  0  0  0
   -1.1506   -3.9993   11.0013 H   0  0  0  0  0  0  0  0  0  0  0  0
    0.5272   -2.7689    9.8613 H   0  0  0  0  0  0  0  0  0  0  0  0
    0.0629   -2.2159   12.1455 H   0  0  0  0  0  0  0  0  0  0  0  0
  1  2  1  0
  1  5  1  0
  2  3  1  0
  2  4  1  0
  2  8  1  0
  5  6  1  0
  5  7  1  0
  5 11  1  0
  8  9  1  0
  8 10  1  0
  8 17  1  0
 11 12  1  0
 11 13  1  0
 11 14  1  0
 14 15  1  0
 14 16  1  0
 14 23  1  0
 17 18  1  0
 17 19  1  0
 17 20  1  0
 20 21  1  0
 20 22  1  0
 20 26  1  0
 23 24  1  0
 23 25  1  0
 23 29  1  0
 26 27  1  0
 26 28  1  0
 26 36  1  0
 29 30  1  0
 29 31  1  0
 29 32  1  0
 32 33  1  0
 32 34  1  0
 32 35  1  0
 36 37  1  0
 36 38  1  0
 36 39  1  0
M  CHG  1   1   1
M  RAD  1   1   2
M  END
$$$$

     RDKit          3D

 39 38  0  0  0  0  0  0  0  0999 V2000
   -0.1097   -0.0201    3.1004 S   0  0  0  0  0  2  0  0  0  0  0  0
   -1.5378    1.2751    4.0425 Si  0  0  0  0  0  4  0  0  0  0  0  0
   -2.1750    0.6340    5.1948 H   0  0  0  0  0  0  0  0  0  0  0  0
   -2.6222    1.4997    3.0433 H   0  0  0  0  0  0  0  0  0  0  0  0
    1.1503   -0.9919    4.4998 Si  0  0  0  0  0  4  0  0  0  0  0  0
    2.5551   -0.8537    4.0195 H   0  0  0  0  0  0  0  0  0  0  0  0
    0.8679   -2.4098    4.6661 H   0  0  0  0  0  0  0  0  0  0  0  0
   -0.6707    3.2550    4.5311 Si  0  0  0  0  0  4  0  0  0  0  0  0
    0.7880    3.1857    4.4146 H   0  0  0  0  0  0  0  0  0  0  0  0
   -1.1976    4.3267    3.6460 H   0  0  0  0  0  0  0  0  0  0  0  0
    1.0853    0.0523    6.4945 Si  0  0  0  0  0  4  0  0  0  0  0  0
    1.0790    1.4919    6.2088 H   0  0  0  0  0  0  0  0  0  0  0  0
    2.3588   -0.2246    7.2057 H   0  0  0  0  0  0  0  0  0  0  0  0
   -0.6784   -0.6012    7.6659 Si  0  0  0  0  0  4  0  0  0  0  0  0
   -1.8053    0.3527    7.5494 H   0  0  0  0  0  0  0  0  0  0  0  0
   -1.1899   -1.8892    7.1279 H   0  0  0  0  0  0  0  0  0  0  0  0
   -1.1612    3.8785    6.6286 Si  0  0  0  0  0  4  0  0  0  0  0  0
   -0.4497    2.9562    7.5499 H   0  0  0  0  0  0  0  0  0  0  0  0
   -2.5813    3.7960    6.9081 H   0  0  0  0  0  0  0  0  0  0  0  0
   -0.3727    5.9285    6.9762 Si  0  0  0  0  0  4  0  0  0  0  0  0
   -0.2535    6.1804    8.4081 H   0  0  0  0  0  0  0  0  0  0  0  0
   -1.3328    6.8834    6.4076 H   0  0  0  0  0  0  0  0  0  0  0  0
   -0.1481   -0.8278    9.8276 Si  0  0  0  0  0  4  0  0  0  0  0  0
   -0.9669    0.0619   10.6552 H   0  0  0  0  0  0  0  0  0  0  0  0
   -0.4249   -2.2006   10.2472 H   0  0  0  0  0  0  0  0  0  0  0  0
    1.6107    6.2231    6.0276 Si  0  0  0  0  0  4  0  0  0  0  0  0
    2.4917    5.0729    6.2541 H   0  0  0  0  0  0  0  0  0  0  0  0
    2.2170    7.4369    6.6039 H   0  0  0  0  0  0  0  0  0  0  0  0
    2.0090   -0.3288   10.0907 Si  0  0  0  0  0  4  0  0  0  0  0  0
    2.7781   -1.5700    9.9140 H   0  0  0  0  0  0  0  0  0  0  0  0
    2.3859    0.6496    9.0609 H   0  0  0  0  0  0  0  0  0  0  0  0
    2.4157    0.5423   12.0942 Si  0  0  0  0  0  4  0  0  0  0  0  0
    2.4190   -0.4571   13.1578 H   0  0  0  0  0  0  0  0  0  0  0  0
    1.4315    1.5927   12.3457 H   0  0  0  0  0  0  0  0  0  0  0  0
    3.7512    1.1704   12.0551 H   0  0  0  0  0  0  0  0  0  0  0  0
    1.3287    6.5644    3.8389 Si  0  0  0  0  0  4  0  0  0  0  0  0
    2.2563    7.5922    3.3463 H   0  0  0  0  0  0  0  0  0  0  0  0
    1.5106    5.2774    3.1547 H   0  0  0  0  0  0  0  0  0  0  0  0
   -0.0536    7.0235    3.6192 H   0  0  0  0  0  0  0  0  0  0  0  0
  1  2  1  0
  1  5  1  0
  2  3  1  0
  2  4  1  0
  2  8  1  0
  5  6  1  0
  5  7  1  0
  5 11  1  0
  8  9  1  0
  8 10  1  0
  8 17  1  0
 11 12  1  0
 11 13  1  0
 11 14  1  0
 14 15  1  0
 14 16  1  0
 14 23  1  0
 17 18  1  0
 17 19  1  0
 17 20  1  0
 20 21  1  0
 20 22  1  0
 20 26  1  0
 23 24  1  0
 23 25  1  0
 23 29  1  0
 26 27  1  0
 26 28  1  0
 26 36  1  0
 29 30  1  0
 29 31  1  0
 29 32  1  0
 32 33  1  0
 32 34  1  0
 32 35  1  0
 36 37  1  0
 36 38  1  0
 36 39  1  0
M  CHG  1   1   1
M  RAD  1   1   2
M  END
$$$$

     RDKit          3D

 39 38  0  0  0  0  0  0  0  0999 V2000
   -0.1097   -0.0201    3.1004 S   0  0  0  0  0  2  0  0  0  0  0  0
   -0.6242   -1.5226    4.5412 Si  0  0  0  0  0  4  0  0  0  0  0  0
   -1.3784   -0.8757    5.6152 H   0  0  0  0  0  0  0  0  0  0  0  0
   -1.4379   -2.5414    3.8728 H   0  0  0  0  0  0  0  0  0  0  0  0
    0.6941    1.7211    4.0814 Si  0  0  0  0  0  4  0  0  0  0  0  0
    1.6088    2.4287    3.1529 H   0  0  0  0  0  0  0  0  0  0  0  0
    1.5334    1.2895    5.2213 H   0  0  0  0  0  0  0  0  0  0  0  0
    1.2259   -2.4289    5.4265 Si  0  0  0  0  0  4  0  0  0  0  0  0
    2.3938   -1.5405    5.2289 H   0  0  0  0  0  0  0  0  0  0  0  0
    1.5123   -3.6512    4.6377 H   0  0  0  0  0  0  0  0  0  0  0  0
   -0.9343    3.0468    4.8044 Si  0  0  0  0  0  4  0  0  0  0  0  0
   -0.7387    4.3741    4.1914 H   0  0  0  0  0  0  0  0  0  0  0  0
   -2.2609    2.5320    4.4408 H   0  0  0  0  0  0  0  0  0  0  0  0
   -0.7519    3.3214    7.0189 Si  0  0  0  0  0  4  0  0  0  0  0  0
   -1.7494    4.2792    7.5038 H   0  0  0  0  0  0  0  0  0  0  0  0
    0.5861    3.9318    7.2558 H   0  0  0  0  0  0  0  0  0  0  0  0
    0.9455   -2.9045    7.5777 Si  0  0  0  0  0  4  0  0  0  0  0  0
    1.3273   -4.3093    7.8072 H   0  0  0  0  0  0  0  0  0  0  0  0
   -0.4396   -2.7171    8.0113 H   0  0  0  0  0  0  0  0  0  0  0  0
    2.2649   -1.6358    8.8622 Si  0  0  0  0  0  4  0  0  0  0  0  0
    3.6860   -1.8756    8.5569 H   0  0  0  0  0  0  0  0  0  0  0  0
    2.0055   -0.2121    8.6626 H   0  0  0  0  0  0  0  0  0  0  0  0
   -0.8278    1.4088    8.1061 Si  0  0  0  0  0  4  0  0  0  0  0  0
    0.0408    0.4358    7.4043 H   0  0  0  0  0  0  0  0  0  0  0  0
   -0.2224    1.6025    9.4414 H   0  0  0  0  0  0  0  0  0  0  0  0
    1.8907   -2.1908   10.9868 Si  0  0  0  0  0  4  0  0  0  0  0  0
    1.4130   -3.5829   11.0251 H   0  0  0  0  0  0  0  0  0  0  0  0
    3.1545   -2.1109   11.7201 H   0  0  0  0  0  0  0  0  0  0  0  0
   -2.8452    0.5601    8.2887 Si  0  0  0  0  0  4  0  0  0  0  0  0
   -2.8766   -0.3228    9.4899 H   0  0  0  0  0  0  0  0  0  0  0  0
   -3.1485   -0.3238    7.1422 H   0  0  0  0  0  0  0  0  0  0  0  0
   -4.4323    2.0781    8.5150 Si  0  0  0  0  0  4  0  0  0  0  0  0
   -5.5270    1.8361    7.5431 H   0  0  0  0  0  0  0  0  0  0  0  0
   -3.9680    3.4465    8.3254 H   0  0  0  0  0  0  0  0  0  0  0  0
   -5.0603    2.0144    9.8570 H   0  0  0  0  0  0  0  0  0  0  0  0
    0.3386   -0.9098   11.9232 Si  0  0  0  0  0  4  0  0  0  0  0  0
   -0.5184   -0.2490   10.9439 H   0  0  0  0  0  0  0  0  0  0  0  0
    0.9755    0.1031   12.7944 H   0  0  0  0  0  0  0  0  0  0  0  0
   -0.5501   -1.7215   12.7910 H   0  0  0  0  0  0  0  0  0  0  0  0
  1  2  1  0
  1  5  1  0
  2  3  1  0
  2  4  1  0
  2  8  1  0
  5  6  1  0
  5  7  1  0
  5 11  1  0
  8  9  1  0
  8 10  1  0
  8 17  1  0
 11 12  1  0
 11 13  1  0
 11 14  1  0
 14 15  1  0
 14 16  1  0
 14 23  1  0
 17 18  1  0
 17 19  1  0
 17 20  1  0
 20 21  1  0
 20 22  1  0
 20 26  1  0
 23 24  1  0
 23 25  1  0
 23 29  1  0
 26 27  1  0
 26 28  1  0
 26 36  1  0
 29 30  1  0
 29 31  1  0
 29 32  1  0
 32 33  1  0
 32 34  1  0
 32 35  1  0
 36 37  1  0
 36 38  1  0
 36 39  1  0
M  CHG  1   1   1
M  RAD  1   1   2
M  END
$$$$

     RDKit          3D

 39 38  0  0  0  0  0  0  0  0999 V2000
   -0.1097   -0.0201    3.1004 S   0  0  0  0  0  2  0  0  0  0  0  0
   -1.6186    0.4682    4.5435 Si  0  0  0  0  0  4  0  0  0  0  0  0
   -0.9692    1.1639    5.6549 H   0  0  0  0  0  0  0  0  0  0  0  0
   -2.6114    1.3305    3.8972 H   0  0  0  0  0  0  0  0  0  0  0  0
    1.6016   -0.9010    4.0679 Si  0  0  0  0  0  4  0  0  0  0  0  0
    2.3009   -1.7925    3.1110 H   0  0  0  0  0  0  0  0  0  0  0  0
    1.1379   -1.7763    5.1674 H   0  0  0  0  0  0  0  0  0  0  0  0
   -2.5754   -1.3960    5.3420 Si  0  0  0  0  0  4  0  0  0  0  0  0
   -1.7097   -2.5741    5.1070 H   0  0  0  0  0  0  0  0  0  0  0  0
   -3.7935   -1.6233    4.5280 H   0  0  0  0  0  0  0  0  0  0  0  0
    2.9527    0.6673    4.8721 Si  0  0  0  0  0  4  0  0  0  0  0  0
    4.2830    0.4677    4.2670 H   0  0  0  0  0  0  0  0  0  0  0  0
    2.4710    2.0185    4.5571 H   0  0  0  0  0  0  0  0  0  0  0  0
    3.1957    0.3891    7.0803 Si  0  0  0  0  0  4  0  0  0  0  0  0
    4.1686    1.3449    7.6166 H   0  0  0  0  0  0  0  0  0  0  0  0
    3.7743   -0.9704    7.2694 H   0  0  0  0  0  0  0  0  0  0  0  0
   -3.0716   -1.1929    7.4971 Si  0  0  0  0  0  4  0  0  0  0  0  0
   -4.4870   -1.5528    7.6946 H   0  0  0  0  0  0  0  0  0  0  0  0
   -2.8600    0.1691    7.9891 H   0  0  0  0  0  0  0  0  0  0  0  0
   -1.8475   -2.5908    8.7413 Si  0  0  0  0  0  4  0  0  0  0  0  0
   -2.1138   -3.9927    8.3753 H   0  0  0  0  0  0  0  0  0  0  0  0
   -0.4162   -2.3547    8.5689 H   0  0  0  0  0  0  0  0  0  0  0  0
    1.2718    0.4627    8.1475 Si  0  0  0  0  0  4  0  0  0  0  0  0
    0.2892   -0.3552    7.3995 H   0  0  0  0  0  0  0  0  0  0  0  0
    1.4358   -0.2005    9.4591 H   0  0  0  0  0  0  0  0  0  0  0  0
   -2.4208   -2.2911   10.8728 Si  0  0  0  0  0  4  0  0  0  0  0  0
   -3.8027   -1.7850   10.9145 H   0  0  0  0  0  0  0  0  0  0  0  0
   -2.3771   -3.5850   11.5547 H   0  0  0  0  0  0  0  0  0  0  0  0
    0.4643    2.4891    8.4025 Si  0  0  0  0  0  4  0  0  0  0  0  0
   -0.4327    2.4910    9.5937 H   0  0  0  0  0  0  0  0  0  0  0  0
   -0.3986    2.8580    7.2592 H   0  0  0  0  0  0  0  0  0  0  0  0
    2.0129    4.0321    8.7111 Si  0  0  0  0  0  4  0  0  0  0  0  0
    1.8065    5.1704    7.7820 H   0  0  0  0  0  0  0  0  0  0  0  0
    3.3733    3.5460    8.5185 H   0  0  0  0  0  0  0  0  0  0  0  0
    1.9459    4.6064   10.0768 H   0  0  0  0  0  0  0  0  0  0  0  0
   -1.1187   -0.8068   11.8866 Si  0  0  0  0  0  4  0  0  0  0  0  0
   -0.4276    0.0747   10.9509 H   0  0  0  0  0  0  0  0  0  0  0  0
   -0.1306   -1.5005   12.7428 H   0  0  0  0  0  0  0  0  0  0  0  0
   -1.9219    0.0636   12.7806 H   0  0  0  0  0  0  0  0  0  0  0  0
  1  2  1  0
  1  5  1  0
  2  3  1  0
  2  4  1  0
  2  8  1  0
  5  6  1  0
  5  7  1  0
  5 11  1  0
  8  9  1  0
  8 10  1  0
  8 17  1  0
 11 12  1  0
 11 13  1  0
 11 14  1  0
 14 15  1  0
 14 16  1  0
 14 23  1  0
 17 18  1  0
 17 19  1  0
 17 20  1  0
 20 21  1  0
 20 22  1  0
 20 26  1  0
 23 24  1  0
 23 25  1  0
 23 29  1  0
 26 27  1  0
 26 28  1  0
 26 36  1  0
 29 30  1  0
 29 31  1  0
 29 32  1  0
 32 33  1  0
 32 34  1  0
 32 35  1  0
 36 37  1  0
 36 38  1  0
 36 39  1  0
M  CHG  1   1   1
M  RAD  1   1   2
M  END
$$$$

     RDKit          3D

 39 38  0  0  0  0  0  0  0  0999 V2000
   -0.1097   -0.0201    3.1004 S   0  0  0  0  0  2  0  0  0  0  0  0
    0.1338   -1.5232    4.5713 Si  0  0  0  0  0  4  0  0  0  0  0  0
    0.7916   -2.6943    3.9235 H   0  0  0  0  0  0  0  0  0  0  0  0
    0.9802   -1.1344    5.6864 H   0  0  0  0  0  0  0  0  0  0  0  0
   -0.0410    1.9547    3.9097 Si  0  0  0  0  0  4  0  0  0  0  0  0
    1.2457    2.2721    4.5240 H   0  0  0  0  0  0  0  0  0  0  0  0
   -0.2114    2.8959    2.7734 H   0  0  0  0  0  0  0  0  0  0  0  0
   -1.8827   -2.2285    5.2402 Si  0  0  0  0  0  4  0  0  0  0  0  0
   -2.4522   -3.0082    4.1105 H   0  0  0  0  0  0  0  0  0  0  0  0
   -2.7945   -1.1182    5.4847 H   0  0  0  0  0  0  0  0  0  0  0  0
   -1.6961    2.3372    5.3398 Si  0  0  0  0  0  4  0  0  0  0  0  0
   -2.7052    1.2735    5.3079 H   0  0  0  0  0  0  0  0  0  0  0  0
   -2.4191    3.5989    5.0117 H   0  0  0  0  0  0  0  0  0  0  0  0
   -0.9380    2.5763    7.4333 Si  0  0  0  0  0  4  0  0  0  0  0  0
    0.2794    3.3840    7.4678 H   0  0  0  0  0  0  0  0  0  0  0  0
   -0.6372    1.2391    7.9680 H   0  0  0  0  0  0  0  0  0  0  0  0
   -1.7609   -3.5033    7.0404 Si  0  0  0  0  0  4  0  0  0  0  0  0
   -2.9621   -3.2627    7.8749 H   0  0  0  0  0  0  0  0  0  0  0  0
   -1.8293   -4.9235    6.6175 H   0  0  0  0  0  0  0  0  0  0  0  0
    0.1000   -3.2170    8.1889 Si  0  0  0  0  0  4  0  0  0  0  0  0
    1.0596   -2.3842    7.4430 H   0  0  0  0  0  0  0  0  0  0  0  0
    0.7609   -4.4998    8.5197 H   0  0  0  0  0  0  0  0  0  0  0  0
   -2.5665    3.4798    8.6814 Si  0  0  0  0  0  4  0  0  0  0  0  0
   -3.2435    2.4495    9.4955 H   0  0  0  0  0  0  0  0  0  0  0  0
   -3.6053    4.0441    7.7912 H   0  0  0  0  0  0  0  0  0  0  0  0
   -0.2732   -2.1729   10.1424 Si  0  0  0  0  0  4  0  0  0  0  0  0
   -0.9950   -0.9077    9.9373 H   0  0  0  0  0  0  0  0  0  0  0  0
   -1.0064   -3.0416   11.0718 H   0  0  0  0  0  0  0  0  0  0  0  0
   -1.7565    5.0284   10.0566 Si  0  0  0  0  0  4  0  0  0  0  0  0
   -0.8531    5.9494    9.3680 H   0  0  0  0  0  0  0  0  0  0  0  0
   -1.1071    4.3348   11.1820 H   0  0  0  0  0  0  0  0  0  0  0  0
   -3.4465    6.2202   10.9037 Si  0  0  0  0  0  4  0  0  0  0  0  0
   -4.0634    7.0877    9.9010 H   0  0  0  0  0  0  0  0  0  0  0  0
   -4.4473    5.3664   11.5495 H   0  0  0  0  0  0  0  0  0  0  0  0
   -2.8709    7.1133   11.9397 H   0  0  0  0  0  0  0  0  0  0  0  0
    1.7462   -1.6271   10.9741 Si  0  0  0  0  0  4  0  0  0  0  0  0
    2.5577   -2.8487   11.1145 H   0  0  0  0  0  0  0  0  0  0  0  0
    2.4032   -0.7941    9.9384 H   0  0  0  0  0  0  0  0  0  0  0  0
    1.6334   -0.8695   12.2056 H   0  0  0  0  0  0  0  0  0  0  0  0
  1  2  1  0
  1  5  1  0
  2  3  1  0
  2  4  1  0
  2  8  1  0
  5  6  1  0
  5  7  1  0
  5 11  1  0
  8  9  1  0
  8 10  1  0
  8 17  1  0
 11 12  1  0
 11 13  1  0
 11 14  1  0
 14 15  1  0
 14 16  1  0
 14 23  1  0
 17 18  1  0
 17 19  1  0
 17 20  1  0
 20 21  1  0
 20 22  1  0
 20 26  1  0
 23 24  1  0
 23 25  1  0
 23 29  1  0
 26 27  1  0
 26 28  1  0
 26 36  1  0
 29 30  1  0
 29 31  1  0
 29 32  1  0
 32 33  1  0
 32 34  1  0
 32 35  1  0
 36 37  1  0
 36 38  1  0
 36 39  1  0
M  CHG  1   1   1
M  RAD  1   1   2
M  END
$$$$

     RDKit          3D

 39 38  0  0  0  0  0  0  0  0999 V2000
   -0.1097   -0.0201    3.1004 S   0  0  0  0  0  2  0  0  0  0  0  0
   -1.5158    0.5958    4.5583 Si  0  0  0  0  0  4  0  0  0  0  0  0
   -2.8308    0.7746    3.8782 H   0  0  0  0  0  0  0  0  0  0  0  0
   -1.7269   -0.3661    5.6267 H   0  0  0  0  0  0  0  0  0  0  0  0
    1.4294   -1.2641    3.9024 Si  0  0  0  0  0  4  0  0  0  0  0  0
    0.9185   -2.5194    4.4473 H   0  0  0  0  0  0  0  0  0  0  0  0
    2.3267   -1.6259    2.7754 H   0  0  0  0  0  0  0  0  0  0  0  0
   -0.9325    2.6132    5.3338 Si  0  0  0  0  0  4  0  0  0  0  0  0
   -1.1997    3.5795    4.2368 H   0  0  0  0  0  0  0  0  0  0  0  0
    0.4933    2.6934    5.6247 H   0  0  0  0  0  0  0  0  0  0  0  0
    2.6624   -0.2082    5.4174 Si  0  0  0  0  0  4  0  0  0  0  0  0
    2.3882    1.2323    5.4403 H   0  0  0  0  0  0  0  0  0  0  0  0
    4.1181   -0.3444    5.1264 H   0  0  0  0  0  0  0  0  0  0  0  0
    2.3521   -1.0538    7.4676 Si  0  0  0  0  0  4  0  0  0  0  0  0
    2.2969   -2.5138    7.4366 H   0  0  0  0  0  0  0  0  0  0  0  0
    1.0751   -0.5403    7.9875 H   0  0  0  0  0  0  0  0  0  0  0  0
   -2.0921    3.1801    7.1268 Si  0  0  0  0  0  4  0  0  0  0  0  0
   -1.2213    3.9770    8.0232 H   0  0  0  0  0  0  0  0  0  0  0  0
   -3.1926    4.0833    6.7099 H   0  0  0  0  0  0  0  0  0  0  0  0
   -2.9789    1.4542    8.1749 Si  0  0  0  0  0  4  0  0  0  0  0  0
   -2.8402    0.2226    7.3782 H   0  0  0  0  0  0  0  0  0  0  0  0
   -4.4157    1.6530    8.4720 H   0  0  0  0  0  0  0  0  0  0  0  0
    3.9979   -0.3157    8.7989 Si  0  0  0  0  0  4  0  0  0  0  0  0
    3.5320    0.7992    9.6490 H   0  0  0  0  0  0  0  0  0  0  0  0
    5.0884    0.2358    7.9641 H   0  0  0  0  0  0  0  0  0  0  0  0
   -1.9719    1.0618   10.1441 Si  0  0  0  0  0  4  0  0  0  0  0  0
   -0.5178    0.9172    9.9757 H   0  0  0  0  0  0  0  0  0  0  0  0
   -2.2774    2.1228   11.1120 H   0  0  0  0  0  0  0  0  0  0  0  0
    4.7419   -1.9366   10.1273 Si  0  0  0  0  0  4  0  0  0  0  0  0
    4.9834   -3.1766    9.3907 H   0  0  0  0  0  0  0  0  0  0  0  0
    3.7666   -2.1073   11.2177 H   0  0  0  0  0  0  0  0  0  0  0  0
    6.6696   -1.2994   11.0609 Si  0  0  0  0  0  4  0  0  0  0  0  0
    7.7636   -1.2620   10.0912 H   0  0  0  0  0  0  0  0  0  0  0  0
    6.5409   -0.0177   11.7599 H   0  0  0  0  0  0  0  0  0  0  0  0
    7.0282   -2.3327   12.0639 H   0  0  0  0  0  0  0  0  0  0  0  0
   -2.7311   -0.9303   10.8671 Si  0  0  0  0  0  4  0  0  0  0  0  0
   -4.2003   -0.8810   10.9660 H   0  0  0  0  0  0  0  0  0  0  0  0
   -2.4071   -1.9040    9.7970 H   0  0  0  0  0  0  0  0  0  0  0  0
   -2.0870   -1.3349   12.1019 H   0  0  0  0  0  0  0  0  0  0  0  0
  1  2  1  0
  1  5  1  0
  2  3  1  0
  2  4  1  0
  2  8  1  0
  5  6  1  0
  5  7  1  0
  5 11  1  0
  8  9  1  0
  8 10  1  0
  8 17  1  0
 11 12  1  0
 11 13  1  0
 11 14  1  0
 14 15  1  0
 14 16  1  0
 14 23  1  0
 17 18  1  0
 17 19  1  0
 17 20  1  0
 20 21  1  0
 20 22  1  0
 20 26  1  0
 23 24  1  0
 23 25  1  0
 23 29  1  0
 26 27  1  0
 26 28  1  0
 26 36  1  0
 29 30  1  0
 29 31  1  0
 29 32  1  0
 32 33  1  0
 32 34  1  0
 32 35  1  0
 36 37  1  0
 36 38  1  0
 36 39  1  0
M  CHG  1   1   1
M  RAD  1   1   2
M  END
$$$$

     RDKit          3D

 39 38  0  0  0  0  0  0  0  0999 V2000
   -0.1097   -0.0201    3.1004 S   0  0  0  0  0  2  0  0  0  0  0  0
    0.3903   -1.4504    4.5790 Si  0  0  0  0  0  4  0  0  0  0  0  0
    1.2459   -2.4903    3.9383 H   0  0  0  0  0  0  0  0  0  0  0  0
    1.1518   -0.9138    5.6941 H   0  0  0  0  0  0  0  0  0  0  0  0
   -0.3921    1.9395    3.9004 Si  0  0  0  0  0  4  0  0  0  0  0  0
    0.8169    2.4811    4.5157 H   0  0  0  0  0  0  0  0  0  0  0  0
   -0.7221    2.8310    2.7591 H   0  0  0  0  0  0  0  0  0  0  0  0
   -1.4725   -2.4967    5.2471 Si  0  0  0  0  0  4  0  0  0  0  0  0
   -1.8926   -3.3694    4.1200 H   0  0  0  0  0  0  0  0  0  0  0  0
   -2.5662   -1.5633    5.4844 H   0  0  0  0  0  0  0  0  0  0  0  0
   -2.0928    2.0309    5.3251 Si  0  0  0  0  0  4  0  0  0  0  0  0
   -2.8988    0.8060    5.2962 H   0  0  0  0  0  0  0  0  0  0  0  0
   -3.0256    3.1442    4.9894 H   0  0  0  0  0  0  0  0  0  0  0  0
   -1.3947    2.4088    7.4190 Si  0  0  0  0  0  4  0  0  0  0  0  0
   -0.3386    3.4184    7.4521 H   0  0  0  0  0  0  0  0  0  0  0  0
   -0.8648    1.1479    7.9608 H   0  0  0  0  0  0  0  0  0  0  0  0
   -1.1335   -3.7224    7.0537 Si  0  0  0  0  0  4  0  0  0  0  0  0
   -2.3606   -3.6933    7.8845 H   0  0  0  0  0  0  0  0  0  0  0  0
   -0.9496   -5.1342    6.6374 H   0  0  0  0  0  0  0  0  0  0  0  0
    0.6446   -3.1078    8.2047 Si  0  0  0  0  0  4  0  0  0  0  0  0
    1.4449   -2.1224    7.4567 H   0  0  0  0  0  0  0  0  0  0  0  0
    1.5200   -4.2529    8.5430 H   0  0  0  0  0  0  0  0  0  0  0  0
   -3.1604    3.0170    8.6594 Si  0  0  0  0  0  4  0  0  0  0  0  0
   -3.6479    1.8872    9.4769 H   0  0  0  0  0  0  0  0  0  0  0  0
   -4.2797    3.3858    7.7643 H   0  0  0  0  0  0  0  0  0  0  0  0
    0.0878   -2.1372   10.1524 Si  0  0  0  0  0  4  0  0  0  0  0  0
   -0.8448   -1.0198    9.9396 H   0  0  0  0  0  0  0  0  0  0  0  0
   -0.4837   -3.1174   11.0844 H   0  0  0  0  0  0  0  0  0  0  0  0
   -2.6397    4.6901   10.0288 Si  0  0  0  0  0  4  0  0  0  0  0  0
   -1.9105    5.7527    9.3375 H   0  0  0  0  0  0  0  0  0  0  0  0
   -1.8816    4.1266   11.1588 H   0  0  0  0  0  0  0  0  0  0  0  0
   -4.5155    5.5694   10.8665 Si  0  0  0  0  0  4  0  0  0  0  0  0
   -5.2726    6.3104    9.8584 H   0  0  0  0  0  0  0  0  0  0  0  0
   -5.3523    4.5556   11.5144 H   0  0  0  0  0  0  0  0  0  0  0  0
   -4.1091    6.5544   11.8994 H   0  0  0  0  0  0  0  0  0  0  0  0
    1.9772   -1.2409   10.9856 Si  0  0  0  0  0  4  0  0  0  0  0  0
    2.9906   -2.2999   11.1336 H   0  0  0  0  0  0  0  0  0  0  0  0
    2.4803   -0.3098    9.9473 H   0  0  0  0  0  0  0  0  0  0  0  0
    1.7292   -0.5096   12.2132 H   0  0  0  0  0  0  0  0  0  0  0  0
  1  2  1  0
  1  5  1  0
  2  3  1  0
  2  4  1  0
  2  8  1  0
  5  6  1  0
  5  7  1  0
  5 11  1  0
  8  9  1  0
  8 10  1  0
  8 17  1  0
 11 12  1  0
 11 13  1  0
 11 14  1  0
 14 15  1  0
 14 16  1  0
 14 23  1  0
 17 18  1  0
 17 19  1  0
 17 20  1  0
 20 21  1  0
 20 22  1  0
 20 26  1  0
 23 24  1  0
 23 25  1  0
 23 29  1  0
 26 27  1  0
 26 28  1  0
 26 36  1  0
 29 30  1  0
 29 31  1  0
 29 32  1  0
 32 33  1  0
 32 34  1  0
 32 35  1  0
 36 37  1  0
 36 38  1  0
 36 39  1  0
M  CHG  1   1   1
M  RAD  1   1   2
M  END
$$$$

     RDKit          3D

 39 38  0  0  0  0  0  0  0  0999 V2000
   -0.1097   -0.0201    3.1004 S   0  0  0  0  0  2  0  0  0  0  0  0
    0.3896    1.8116    4.1005 Si  0  0  0  0  0  4  0  0  0  0  0  0
   -0.4735    2.0503    5.2594 H   0  0  0  0  0  0  0  0  0  0  0  0
    0.0960    2.9095    3.1343 H   0  0  0  0  0  0  0  0  0  0  0  0
   -0.4015   -1.6273    4.4503 Si  0  0  0  0  0  4  0  0  0  0  0  0
    0.3634   -2.7988    3.9346 H   0  0  0  0  0  0  0  0  0  0  0  0
   -1.7923   -2.0280    4.6020 H   0  0  0  0  0  0  0  0  0  0  0  0
    2.5461    1.9284    4.5963 Si  0  0  0  0  0  4  0  0  0  0  0  0
    3.1504    0.6031    4.4396 H   0  0  0  0  0  0  0  0  0  0  0  0
    3.2606    2.9133    3.7423 H   0  0  0  0  0  0  0  0  0  0  0  0
    0.4949   -1.1550    6.4619 Si  0  0  0  0  0  4  0  0  0  0  0  0
    1.7733   -0.4838    6.1989 H   0  0  0  0  0  0  0  0  0  0  0  0
    0.8286   -2.4359    7.1343 H   0  0  0  0  0  0  0  0  0  0  0  0
   -0.8933    0.0793    7.6699 Si  0  0  0  0  0  4  0  0  0  0  0  0
   -0.5587    1.5202    7.5985 H   0  0  0  0  0  0  0  0  0  0  0  0
   -2.2720   -0.0366    7.1260 H   0  0  0  0  0  0  0  0  0  0  0  0
    2.8738    2.5842    6.7155 Si  0  0  0  0  0  4  0  0  0  0  0  0
    2.3765    1.5021    7.6030 H   0  0  0  0  0  0  0  0  0  0  0  0
    2.1519    3.8009    7.0318 H   0  0  0  0  0  0  0  0  0  0  0  0
    5.0572    2.8072    7.0736 Si  0  0  0  0  0  4  0  0  0  0  0  0
    5.3335    2.7718    8.5055 H   0  0  0  0  0  0  0  0  0  0  0  0
    5.4695    4.1142    6.5458 H   0  0  0  0  0  0  0  0  0  0  0  0
   -0.8563   -0.5626    9.8129 Si  0  0  0  0  0  4  0  0  0  0  0  0
   -0.4396    0.5458   10.6758 H   0  0  0  0  0  0  0  0  0  0  0  0
   -2.2048   -0.9556   10.2184 H   0  0  0  0  0  0  0  0  0  0  0  0
    6.2260    1.2070    6.0769 Si  0  0  0  0  0  4  0  0  0  0  0  0
    5.6043   -0.1083    6.2618 H   0  0  0  0  0  0  0  0  0  0  0  0
    7.5818    1.2035    6.6554 H   0  0  0  0  0  0  0  0  0  0  0  0
    0.5718   -2.2616   10.0257 Si  0  0  0  0  0  4  0  0  0  0  0  0
   -0.1814   -3.5063    9.8092 H   0  0  0  0  0  0  0  0  0  0  0  0
    1.6159   -2.1187    9.0014 H   0  0  0  0  0  0  0  0  0  0  0  0
    1.5294   -2.2880   12.0308 Si  0  0  0  0  0  4  0  0  0  0  0  0
    0.6400   -2.7796   13.0784 H   0  0  0  0  0  0  0  0  0  0  0  0
    2.0144   -0.9413   12.3249 H   0  0  0  0  0  0  0  0  0  0  0  0
    2.6978   -3.1881   11.9657 H   0  0  0  0  0  0  0  0  0  0  0  0
    6.4044    1.6812    3.9020 Si  0  0  0  0  0  4  0  0  0  0  0  0
    7.7430    1.3402    3.4007 H   0  0  0  0  0  0  0  0  0  0  0  0
    5.3433    0.9535    3.1934 H   0  0  0  0  0  0  0  0  0  0  0  0
    6.1824    3.1268    3.7266 H   0  0  0  0  0  0  0  0  0  0  0  0
  1  2  1  0
  1  5  1  0
  2  3  1  0
  2  4  1  0
  2  8  1  0
  5  6  1  0
  5  7  1  0
  5 11  1  0
  8  9  1  0
  8 10  1  0
  8 17  1  0
 11 12  1  0
 11 13  1  0
 11 14  1  0
 14 15  1  0
 14 16  1  0
 14 23  1  0
 17 18  1  0
 17 19  1  0
 17 20  1  0
 20 21  1  0
 20 22  1  0
 20 26  1  0
 23 24  1  0
 23 25  1  0
 23 29  1  0
 26 27  1  0
 26 28  1  0
 26 36  1  0
 29 30  1  0
 29 31  1  0
 29 32  1  0
 32 33  1  0
 32 34  1  0
 32 35  1  0
 36 37  1  0
 36 38  1  0
 36 39  1  0
M  CHG  1   1   1
M  RAD  1   1   2
M  END
$$$$
