
     RDKit          3D

 39 38  0  0  0  0  0  0  0  0999 V2000
   -0.0007   -0.0017   -4.6707 S   0  0  0  0  0  2  0  0  0  0  0  0
    1.8230   -1.1247   -5.0045 Si  0  0  0  0  0  4  0  0  0  0  0  0
    2.9110   -0.6331   -4.1799 H   0  0  0  0  0  0  0  0  0  0  0  0
    1.5391   -2.5296   -4.6124 H   0  0  0  0  0  0  0  0  0  0  0  0
   -0.2615    1.4962   -6.1657 Si  0  0  0  0  0  4  0  0  0  0  0  0
   -1.0715    2.5890   -5.5550 H   0  0  0  0  0  0  0  0  0  0  0  0
    1.0080    2.1154   -6.5698 H   0  0  0  0  0  0  0  0  0  0  0  0
    2.2932   -1.1209   -7.1720 Si  0  0  0  0  0  4  0  0  0  0  0  0
    1.9263   -2.4115   -7.8154 H   0  0  0  0  0  0  0  0  0  0  0  0
    1.5284   -0.0761   -7.8179 H   0  0  0  0  0  0  0  0  0  0  0  0
   -1.4012    0.7451   -7.9201 Si  0  0  0  0  0  4  0  0  0  0  0  0
   -2.6681    0.1612   -7.4027 H   0  0  0  0  0  0  0  0  0  0  0  0
   -0.7129   -0.3000   -8.6460 H   0  0  0  0  0  0  0  0  0  0  0  0
   -1.9159    2.3950   -9.2862 Si  0  0  0  0  0  4  0  0  0  0  0  0
   -3.0152    3.2093   -8.7533 H   0  0  0  0  0  0  0  0  0  0  0  0
   -2.3959    1.8010  -10.5658 H   0  0  0  0  0  0  0  0  0  0  0  0
    4.4538   -0.7403   -7.5615 Si  0  0  0  0  0  4  0  0  0  0  0  0
    5.0394    0.2032   -6.6271 H   0  0  0  0  0  0  0  0  0  0  0  0
    4.5486   -0.1360   -8.9204 H   0  0  0  0  0  0  0  0  0  0  0  0
    5.5117   -2.6883   -7.6316 Si  0  0  0  0  0  4  0  0  0  0  0  0
    6.9658   -2.4953   -7.5278 H   0  0  0  0  0  0  0  0  0  0  0  0
    5.0075   -3.5120   -6.4968 H   0  0  0  0  0  0  0  0  0  0  0  0
   -0.1910    3.6991   -9.7665 Si  0  0  0  0  0  4  0  0  0  0  0  0
   -0.4589    4.3631  -11.0565 H   0  0  0  0  0  0  0  0  0  0  0  0
   -0.1502    4.7854   -8.7490 H   0  0  0  0  0  0  0  0  0  0  0  0
    4.9371   -3.7414   -9.5086 Si  0  0  0  0  0  4  0  0  0  0  0  0
    3.7886   -4.6453   -9.2484 H   0  0  0  0  0  0  0  0  0  0  0  0
    6.0468   -4.5835   -9.9690 H   0  0  0  0  0  0  0  0  0  0  0  0
    1.7060    2.5718   -9.7791 Si  0  0  0  0  0  4  0  0  0  0  0  0
    1.3734    1.1230   -9.8912 H   0  0  0  0  0  0  0  0  0  0  0  0
    2.4004    2.8314   -8.4860 H   0  0  0  0  0  0  0  0  0  0  0  0
    3.0245    3.0949  -11.4702 Si  0  0  0  0  0  4  0  0  0  0  0  0
    4.4332    2.8588  -11.0376 H   0  0  0  0  0  0  0  0  0  0  0  0
    2.8921    4.4653  -11.9232 H   0  0  0  0  0  0  0  0  0  0  0  0
    2.8070    2.1331  -12.5892 H   0  0  0  0  0  0  0  0  0  0  0  0
    4.3184   -2.3245  -11.1023 Si  0  0  0  0  0  4  0  0  0  0  0  0
    5.1740   -1.1481  -11.1834 H   0  0  0  0  0  0  0  0  0  0  0  0
    2.9232   -1.8803  -10.8722 H   0  0  0  0  0  0  0  0  0  0  0  0
    4.3176   -3.0277  -12.3948 H   0  0  0  0  0  0  0  0  0  0  0  0
  1  2  1  0
  1  5  1  0
  2  3  1  0
  2  4  1  0
  2  8  1  0
  5  6  1  0
  5  7  1  0
  5 11  1  0
  8  9  1  0
  8 10  1  0
  8 17  1  0
 11 12  1  0
 11 13  1  0
 11 14  1  0
 14 15  1  0
 14 16  1  0
 14 23  1  0
 17 18  1  0
 17 19  1  0
 17 20  1  0
 20 21  1  0
 20 22  1  0
 20 26  1  0
 23 24  1  0
 23 25  1  0
 23 29  1  0
 26 27  1  0
 26 28  1  0
 26 36  1  0
 29 30  1  0
 29 31  1  0
 29 32  1  0
 32 33  1  0
 32 34  1  0
 32 35  1  0
 36 37  1  0
 36 38  1  0
 36 39  1  0
M  CHG  1   1   1
M  RAD  1   1   2
M  END
$$$$

     RDKit          3D

 39 38  0  0  0  0  0  0  0  0999 V2000
   -0.0007   -0.0017   -4.6707 S   0  0  0  0  0  2  0  0  0  0  0  0
    1.8358   -0.7787   -5.2953 Si  0  0  0  0  0  4  0  0  0  0  0  0
    1.6753   -2.2294   -5.6041 H   0  0  0  0  0  0  0  0  0  0  0  0
    2.7787   -0.7351   -4.1614 H   0  0  0  0  0  0  0  0  0  0  0  0
   -1.4637    0.2557   -6.1472 Si  0  0  0  0  0  4  0  0  0  0  0  0
   -1.0420    1.3493   -7.0687 H   0  0  0  0  0  0  0  0  0  0  0  0
   -2.6960    0.7501   -5.5070 H   0  0  0  0  0  0  0  0  0  0  0  0
    2.7933    0.2775   -6.9782 Si  0  0  0  0  0  4  0  0  0  0  0  0
    3.7013    1.3470   -6.5149 H   0  0  0  0  0  0  0  0  0  0  0  0
    3.6665   -0.7023   -7.6885 H   0  0  0  0  0  0  0  0  0  0  0  0
   -1.9951   -1.5881   -7.2515 Si  0  0  0  0  0  4  0  0  0  0  0  0
   -3.1088   -2.3105   -6.6048 H   0  0  0  0  0  0  0  0  0  0  0  0
   -2.4850   -1.1933   -8.5908 H   0  0  0  0  0  0  0  0  0  0  0  0
   -0.2985   -2.9721   -7.5226 Si  0  0  0  0  0  4  0  0  0  0  0  0
   -0.0390   -3.7626   -6.2900 H   0  0  0  0  0  0  0  0  0  0  0  0
    0.9339   -2.2959   -7.8858 H   0  0  0  0  0  0  0  0  0  0  0  0
    1.3928    1.1293   -8.4438 Si  0  0  0  0  0  4  0  0  0  0  0  0
    0.3058    0.2336   -8.8077 H   0  0  0  0  0  0  0  0  0  0  0  0
    0.8693    2.4583   -8.0164 H   0  0  0  0  0  0  0  0  0  0  0  0
    2.5356    1.5012  -10.3460 Si  0  0  0  0  0  4  0  0  0  0  0  0
    3.5406    0.4385  -10.5113 H   0  0  0  0  0  0  0  0  0  0  0  0
    3.2076    2.8028  -10.2721 H   0  0  0  0  0  0  0  0  0  0  0  0
   -0.7929   -4.3651   -9.2176 Si  0  0  0  0  0  4  0  0  0  0  0  0
   -2.1926   -4.2256   -9.6202 H   0  0  0  0  0  0  0  0  0  0  0  0
   -0.5361   -5.7422   -8.7949 H   0  0  0  0  0  0  0  0  0  0  0  0
    1.1717    1.4187  -12.1092 Si  0  0  0  0  0  4  0  0  0  0  0  0
    1.3300    2.6219  -12.9455 H   0  0  0  0  0  0  0  0  0  0  0  0
    1.4618    0.2561  -12.9583 H   0  0  0  0  0  0  0  0  0  0  0  0
    0.4684   -3.9096  -11.0070 Si  0  0  0  0  0  4  0  0  0  0  0  0
    0.2180   -4.9393  -12.0044 H   0  0  0  0  0  0  0  0  0  0  0  0
    0.1824   -2.5833  -11.5392 H   0  0  0  0  0  0  0  0  0  0  0  0
    2.6320   -3.9935  -10.3970 Si  0  0  0  0  0  4  0  0  0  0  0  0
    3.4773   -3.4290  -11.4530 H   0  0  0  0  0  0  0  0  0  0  0  0
    2.9531   -5.4022  -10.1179 H   0  0  0  0  0  0  0  0  0  0  0  0
    2.7472   -3.2187   -9.1402 H   0  0  0  0  0  0  0  0  0  0  0  0
   -0.9202    1.2307  -11.3635 Si  0  0  0  0  0  4  0  0  0  0  0  0
   -1.1558    2.3401  -10.4214 H   0  0  0  0  0  0  0  0  0  0  0  0
   -1.0059   -0.0127  -10.5750 H   0  0  0  0  0  0  0  0  0  0  0  0
   -1.8625    1.2418  -12.4757 H   0  0  0  0  0  0  0  0  0  0  0  0
  1  2  1  0
  1  5  1  0
  2  3  1  0
  2  4  1  0
  2  8  1  0
  5  6  1  0
  5  7  1  0
  5 11  1  0
  8  9  1  0
  8 10  1  0
  8 17  1  0
 11 12  1  0
 11 13  1  0
 11 14  1  0
 14 15  1  0
 14 16  1  0
 14 23  1  0
 17 18  1  0
 17 19  1  0
 17 20  1  0
 20 21  1  0
 20 22  1  0
 20 26  1  0
 23 24  1  0
 23 25  1  0
 23 29  1  0
 26 27  1  0
 26 28  1  0
 26 36  1  0
 29 30  1  0
 29 31  1  0
 29 32  1  0
 32 33  1  0
 32 34  1  0
 32 35  1  0
 36 37  1  0
 36 38  1  0
 36 39  1  0
M  CHG  1   1   1
M  RAD  1   1   2
M  END
$$$$

     RDKit          3D

 39 38  0  0  0  0  0  0  0  0999 V2000
   -0.0007   -0.0017   -4.6707 S   0  0  0  0  0  2  0  0  0  0  0  0
   -1.8238    0.8074   -5.2937 Si  0  0  0  0  0  4  0  0  0  0  0  0
   -1.6379    2.2549   -5.6034 H   0  0  0  0  0  0  0  0  0  0  0  0
   -2.7661    0.7811   -4.1588 H   0  0  0  0  0  0  0  0  0  0  0  0
    1.4559   -0.2858   -6.1487 Si  0  0  0  0  0  4  0  0  0  0  0  0
    1.0139   -1.3721   -7.0692 H   0  0  0  0  0  0  0  0  0  0  0  0
    2.6799   -0.8016   -5.5096 H   0  0  0  0  0  0  0  0  0  0  0  0
   -2.8017   -0.2324   -6.9750 Si  0  0  0  0  0  4  0  0  0  0  0  0
   -3.7280   -1.2855   -6.5102 H   0  0  0  0  0  0  0  0  0  0  0  0
   -3.6582    0.7623   -7.6849 H   0  0  0  0  0  0  0  0  0  0  0  0
    2.0187    1.5478   -7.2545 Si  0  0  0  0  0  4  0  0  0  0  0  0
    3.1457    2.2507   -6.6094 H   0  0  0  0  0  0  0  0  0  0  0  0
    2.5001    1.1438   -8.5941 H   0  0  0  0  0  0  0  0  0  0  0  0
    0.3466    2.9616   -7.5244 Si  0  0  0  0  0  4  0  0  0  0  0  0
    0.1025    3.7572   -6.2919 H   0  0  0  0  0  0  0  0  0  0  0  0
   -0.8979    2.3072   -7.8859 H   0  0  0  0  0  0  0  0  0  0  0  0
   -1.4181   -1.1097   -8.4417 Si  0  0  0  0  0  4  0  0  0  0  0  0
   -0.3158   -0.2336   -8.8073 H   0  0  0  0  0  0  0  0  0  0  0  0
   -0.9179   -2.4476   -8.0142 H   0  0  0  0  0  0  0  0  0  0  0  0
   -2.5694   -1.4621  -10.3425 Si  0  0  0  0  0  4  0  0  0  0  0  0
   -3.5556   -0.3819  -10.5073 H   0  0  0  0  0  0  0  0  0  0  0  0
   -3.2644   -2.7517  -10.2671 H   0  0  0  0  0  0  0  0  0  0  0  0
    0.8638    4.3447   -9.2207 Si  0  0  0  0  0  4  0  0  0  0  0  0
    2.2604    4.1803   -9.6248 H   0  0  0  0  0  0  0  0  0  0  0  0
    0.6320    5.7264   -8.7985 H   0  0  0  0  0  0  0  0  0  0  0  0
   -1.2062   -1.4047  -12.1072 Si  0  0  0  0  0  4  0  0  0  0  0  0
   -1.3868   -2.6054  -12.9427 H   0  0  0  0  0  0  0  0  0  0  0  0
   -1.4766   -0.2376  -12.9566 H   0  0  0  0  0  0  0  0  0  0  0  0
   -0.4074    3.9107  -11.0084 Si  0  0  0  0  0  4  0  0  0  0  0  0
   -0.1398    4.9354  -12.0067 H   0  0  0  0  0  0  0  0  0  0  0  0
   -0.1455    2.5794  -11.5403 H   0  0  0  0  0  0  0  0  0  0  0  0
   -2.5684    4.0334  -10.3962 Si  0  0  0  0  0  4  0  0  0  0  0  0
   -3.4248    3.4834  -11.4510 H   0  0  0  0  0  0  0  0  0  0  0  0
   -2.8642    5.4476  -10.1174 H   0  0  0  0  0  0  0  0  0  0  0  0
   -2.6959    3.2614   -9.1388 H   0  0  0  0  0  0  0  0  0  0  0  0
    0.8895   -1.2535  -11.3639 Si  0  0  0  0  0  4  0  0  0  0  0  0
    1.1064   -2.3665  -10.4215 H   0  0  0  0  0  0  0  0  0  0  0  0
    0.9981   -0.0114  -10.5761 H   0  0  0  0  0  0  0  0  0  0  0  0
    1.8302   -1.2818  -12.4770 H   0  0  0  0  0  0  0  0  0  0  0  0
  1  2  1  0
  1  5  1  0
  2  3  1  0
  2  4  1  0
  2  8  1  0
  5  6  1  0
  5  7  1  0
  5 11  1  0
  8  9  1  0
  8 10  1  0
  8 17  1  0
 11 12  1  0
 11 13  1  0
 11 14  1  0
 14 15  1  0
 14 16  1  0
 14 23  1  0
 17 18  1  0
 17 19  1  0
 17 20  1  0
 20 21  1  0
 20 22  1  0
 20 26  1  0
 23 24  1  0
 23 25  1  0
 23 29  1  0
 26 27  1  0
 26 28  1  0
 26 36  1  0
 29 30  1  0
 29 31  1  0
 29 32  1  0
 32 33  1  0
 32 34  1  0
 32 35  1  0
 36 37  1  0
 36 38  1  0
 36 39  1  0
M  CHG  1   1   1
M  RAD  1   1   2
M  END
$$$$

     RDKit          3D

 39 38  0  0  0  0  0  0  0  0999 V2000
   -0.0007   -0.0017   -4.6707 S   0  0  0  0  0  2  0  0  0  0  0  0
   -1.8908    1.0062   -5.0030 Si  0  0  0  0  0  4  0  0  0  0  0  0
   -2.9454    0.4486   -4.1770 H   0  0  0  0  0  0  0  0  0  0  0  0
   -1.6938    2.4261   -4.6119 H   0  0  0  0  0  0  0  0  0  0  0  0
    0.3507   -1.4814   -6.1653 Si  0  0  0  0  0  4  0  0  0  0  0  0
    1.2274   -2.5217   -5.5550 H   0  0  0  0  0  0  0  0  0  0  0  0
   -0.8785   -2.1782   -6.5677 H   0  0  0  0  0  0  0  0  0  0  0  0
   -2.3621    0.9722   -7.1700 Si  0  0  0  0  0  4  0  0  0  0  0  0
   -2.0764    2.2826   -7.8144 H   0  0  0  0  0  0  0  0  0  0  0  0
   -1.5349   -0.0237   -7.8162 H   0  0  0  0  0  0  0  0  0  0  0  0
    1.4399   -0.6622   -7.9213 Si  0  0  0  0  0  4  0  0  0  0  0  0
    2.6688   -0.0007   -7.4056 H   0  0  0  0  0  0  0  0  0  0  0  0
    0.6875    0.3379   -8.6469 H   0  0  0  0  0  0  0  0  0  0  0  0
    2.0542   -2.2778   -9.2872 Si  0  0  0  0  0  4  0  0  0  0  0  0
    3.2023   -3.0222   -8.7551 H   0  0  0  0  0  0  0  0  0  0  0  0
    2.4951   -1.6559  -10.5676 H   0  0  0  0  0  0  0  0  0  0  0  0
   -4.4954    0.4584   -7.5569 Si  0  0  0  0  0  4  0  0  0  0  0  0
   -5.0205   -0.5190   -6.6214 H   0  0  0  0  0  0  0  0  0  0  0  0
   -4.5541   -0.1514   -8.9155 H   0  0  0  0  0  0  0  0  0  0  0  0
   -5.6719    2.3371   -7.6268 Si  0  0  0  0  0  4  0  0  0  0  0  0
   -7.1112    2.0547   -7.5213 H   0  0  0  0  0  0  0  0  0  0  0  0
   -5.2184    3.1911   -6.4930 H   0  0  0  0  0  0  0  0  0  0  0  0
    0.4128   -3.6864   -9.7650 Si  0  0  0  0  0  4  0  0  0  0  0  0
    0.7199   -4.3332  -11.0549 H   0  0  0  0  0  0  0  0  0  0  0  0
    0.4403   -4.7725   -8.7469 H   0  0  0  0  0  0  0  0  0  0  0  0
   -5.1656    3.4228   -9.5049 Si  0  0  0  0  0  4  0  0  0  0  0  0
   -4.0749    4.3962   -9.2464 H   0  0  0  0  0  0  0  0  0  0  0  0
   -6.3257    4.1944   -9.9644 H   0  0  0  0  0  0  0  0  0  0  0  0
   -1.5504   -2.6786   -9.7760 Si  0  0  0  0  0  4  0  0  0  0  0  0
   -1.3082   -1.2120   -9.8891 H   0  0  0  0  0  0  0  0  0  0  0  0
   -2.2260   -2.9800   -8.4820 H   0  0  0  0  0  0  0  0  0  0  0  0
   -2.8358   -3.2831  -11.4655 Si  0  0  0  0  0  4  0  0  0  0  0  0
   -4.2560   -3.1344  -11.0314 H   0  0  0  0  0  0  0  0  0  0  0  0
   -2.6194   -4.6429  -11.9179 H   0  0  0  0  0  0  0  0  0  0  0  0
   -2.6794   -2.3103  -12.5851 H   0  0  0  0  0  0  0  0  0  0  0  0
   -4.4620    2.0461  -11.0986 Si  0  0  0  0  0  4  0  0  0  0  0  0
   -5.2433    0.8189  -11.1782 H   0  0  0  0  0  0  0  0  0  0  0  0
   -3.0418    1.6891  -10.8699 H   0  0  0  0  0  0  0  0  0  0  0  0
   -4.5061    2.7472  -12.3915 H   0  0  0  0  0  0  0  0  0  0  0  0
  1  2  1  0
  1  5  1  0
  2  3  1  0
  2  4  1  0
  2  8  1  0
  5  6  1  0
  5  7  1  0
  5 11  1  0
  8  9  1  0
  8 10  1  0
  8 17  1  0
 11 12  1  0
 11 13  1  0
 11 14  1  0
 14 15  1  0
 14 16  1  0
 14 23  1  0
 17 18  1  0
 17 19  1  0
 17 20  1  0
 20 21  1  0
 20 22  1  0
 20 26  1  0
 23 24  1  0
 23 25  1  0
 23 29  1  0
 26 27  1  0
 26 28  1  0
 26 36  1  0
 29 30  1  0
 29 31  1  0
 29 32  1  0
 32 33  1  0
 32 34  1  0
 32 35  1  0
 36 37  1  0
 36 38  1  0
 36 39  1  0
M  CHG  1   1   1
M  RAD  1   1   2
M  END
$$$$

     RDKit          3D

 39 38  0  0  0  0  0  0  0  0999 V2000
   -0.0007   -0.0017   -4.6707 S   0  0  0  0  0  2  0  0  0  0  0  0
   -1.0669   -1.8595   -5.0027 Si  0  0  0  0  0  4  0  0  0  0  0  0
   -0.5417   -2.9311   -4.1774 H   0  0  0  0  0  0  0  0  0  0  0  0
   -2.4798   -1.6188   -4.6105 H   0  0  0  0  0  0  0  0  0  0  0  0
    1.4881    0.3041   -6.1664 Si  0  0  0  0  0  4  0  0  0  0  0  0
    2.5555    1.1479   -5.5566 H   0  0  0  0  0  0  0  0  0  0  0  0
    2.1461   -0.9460   -6.5696 H   0  0  0  0  0  0  0  0  0  0  0  0
   -1.0492   -2.3310   -7.1698 Si  0  0  0  0  0  4  0  0  0  0  0  0
   -2.3507   -2.0047   -7.8132 H   0  0  0  0  0  0  0  0  0  0  0  0
   -0.0287   -1.5349   -7.8167 H   0  0  0  0  0  0  0  0  0  0  0  0
    0.7016    1.4187   -7.9214 Si  0  0  0  0  0  4  0  0  0  0  0  0
    0.0790    2.6674   -7.4049 H   0  0  0  0  0  0  0  0  0  0  0  0
   -0.3219    0.6979   -8.6464 H   0  0  0  0  0  0  0  0  0  0  0  0
    2.3345    1.9830   -9.2884 Si  0  0  0  0  0  4  0  0  0  0  0  0
    3.1145    3.1073   -8.7566 H   0  0  0  0  0  0  0  0  0  0  0  0
    1.7256    2.4434  -10.5682 H   0  0  0  0  0  0  0  0  0  0  0  0
   -0.6021   -4.4792   -7.5578 Si  0  0  0  0  0  4  0  0  0  0  0  0
    0.3592   -5.0346   -6.6232 H   0  0  0  0  0  0  0  0  0  0  0  0
    0.0045   -4.5563   -8.9169 H   0  0  0  0  0  0  0  0  0  0  0  0
   -2.5165   -5.5968   -7.6265 Si  0  0  0  0  0  4  0  0  0  0  0  0
   -2.2787   -7.0441   -7.5217 H   0  0  0  0  0  0  0  0  0  0  0  0
   -3.3551   -5.1174   -6.4919 H   0  0  0  0  0  0  0  0  0  0  0  0
    3.6911    0.2988   -9.7678 Si  0  0  0  0  0  4  0  0  0  0  0  0
    4.3461    0.5861  -11.0581 H   0  0  0  0  0  0  0  0  0  0  0  0
    4.7783    0.2924   -8.7505 H   0  0  0  0  0  0  0  0  0  0  0  0
   -3.5875   -5.0565   -9.5037 Si  0  0  0  0  0  4  0  0  0  0  0  0
   -4.5263   -3.9362   -9.2441 H   0  0  0  0  0  0  0  0  0  0  0  0
   -4.3950   -6.1920   -9.9629 H   0  0  0  0  0  0  0  0  0  0  0  0
    2.6229   -1.6321   -9.7785 Si  0  0  0  0  0  4  0  0  0  0  0  0
    1.1645   -1.3445   -9.8904 H   0  0  0  0  0  0  0  0  0  0  0  0
    2.9042   -2.3171   -8.4850 H   0  0  0  0  0  0  0  0  0  0  0  0
    3.1860   -2.9351  -11.4688 Si  0  0  0  0  0  4  0  0  0  0  0  0
    2.9936   -4.3502  -11.0350 H   0  0  0  0  0  0  0  0  0  0  0  0
    4.5515   -2.7609  -11.9223 H   0  0  0  0  0  0  0  0  0  0  0  0
    2.2176   -2.7484  -12.5877 H   0  0  0  0  0  0  0  0  0  0  0  0
   -2.1908   -4.3955  -11.0982 Si  0  0  0  0  0  4  0  0  0  0  0  0
   -0.9885   -5.2144  -11.1790 H   0  0  0  0  0  0  0  0  0  0  0  0
   -1.7898   -2.9871  -10.8694 H   0  0  0  0  0  0  0  0  0  0  0  0
   -2.8940   -4.4174  -12.3905 H   0  0  0  0  0  0  0  0  0  0  0  0
  1  2  1  0
  1  5  1  0
  2  3  1  0
  2  4  1  0
  2  8  1  0
  5  6  1  0
  5  7  1  0
  5 11  1  0
  8  9  1  0
  8 10  1  0
  8 17  1  0
 11 12  1  0
 11 13  1  0
 11 14  1  0
 14 15  1  0
 14 16  1  0
 14 23  1  0
 17 18  1  0
 17 19  1  0
 17 20  1  0
 20 21  1  0
 20 22  1  0
 20 26  1  0
 23 24  1  0
 23 25  1  0
 23 29  1  0
 26 27  1  0
 26 28  1  0
 26 36  1  0
 29 30  1  0
 29 31  1  0
 29 32  1  0
 32 33  1  0
 32 34  1  0
 32 35  1  0
 36 37  1  0
 36 38  1  0
 36 39  1  0
M  CHG  1   1   1
M  RAD  1   1   2
M  END
$$$$
