
     RDKit          3D

 39 38  0  0  0  0  0  0  0  0999 V2000
    1.1056    0.3943   -2.1347 S   0  0  0  0  0  2  0  0  0  0  0  0
    2.7949    1.0782   -3.2109 Si  0  0  0  0  0  4  0  0  0  0  0  0
    2.9691    2.5375   -3.1503 H   0  0  0  0  0  0  0  0  0  0  0  0
    4.0046    0.4995   -2.5565 H   0  0  0  0  0  0  0  0  0  0  0  0
   -0.7097    1.2953   -2.6909 Si  0  0  0  0  0  4  0  0  0  0  0  0
   -1.6934    0.2230   -3.0162 H   0  0  0  0  0  0  0  0  0  0  0  0
   -1.2820    1.9949   -1.5099 H   0  0  0  0  0  0  0  0  0  0  0  0
    2.8084    0.4533   -5.3261 Si  0  0  0  0  0  4  0  0  0  0  0  0
    4.2238    0.2682   -5.7565 H   0  0  0  0  0  0  0  0  0  0  0  0
    2.2252    1.4327   -6.2344 H   0  0  0  0  0  0  0  0  0  0  0  0
   -0.5252    2.7659   -4.3281 Si  0  0  0  0  0  4  0  0  0  0  0  0
   -0.8566    4.1438   -3.8644 H   0  0  0  0  0  0  0  0  0  0  0  0
    0.8343    2.8448   -4.8810 H   0  0  0  0  0  0  0  0  0  0  0  0
   -2.0159    2.2261   -5.9226 Si  0  0  0  0  0  4  0  0  0  0  0  0
   -2.5213    0.8564   -5.7141 H   0  0  0  0  0  0  0  0  0  0  0  0
   -1.4392    2.3054   -7.2510 H   0  0  0  0  0  0  0  0  0  0  0  0
    1.7767   -1.4935   -5.6516 Si  0  0  0  0  0  4  0  0  0  0  0  0
    0.3509   -1.4279   -5.3748 H   0  0  0  0  0  0  0  0  0  0  0  0
    2.4113   -2.5461   -4.8352 H   0  0  0  0  0  0  0  0  0  0  0  0
    2.0283   -2.0539   -7.8084 Si  0  0  0  0  0  4  0  0  0  0  0  0
    2.9700   -1.1404   -8.4878 H   0  0  0  0  0  0  0  0  0  0  0  0
    2.6218   -3.4081   -7.9274 H   0  0  0  0  0  0  0  0  0  0  0  0
   -3.8047    3.5879   -5.7520 Si  0  0  0  0  0  4  0  0  0  0  0  0
   -4.5849    3.1956   -4.5729 H   0  0  0  0  0  0  0  0  0  0  0  0
   -4.6180    3.5491   -6.9501 H   0  0  0  0  0  0  0  0  0  0  0  0
    0.0862   -1.9259   -8.9002 Si  0  0  0  0  0  4  0  0  0  0  0  0
   -0.1717   -3.2293   -9.5105 H   0  0  0  0  0  0  0  0  0  0  0  0
   -1.0014   -1.6298   -7.9701 H   0  0  0  0  0  0  0  0  0  0  0  0
   -2.9950    5.6553   -5.3752 Si  0  0  0  0  0  4  0  0  0  0  0  0
   -2.8420    5.8392   -3.9348 H   0  0  0  0  0  0  0  0  0  0  0  0
   -3.8622    6.6664   -5.9787 H   0  0  0  0  0  0  0  0  0  0  0  0
   -0.9545    5.7780   -6.2922 Si  0  0  0  0  0  4  0  0  0  0  0  0
    0.0647    6.1188   -5.2829 H   0  0  0  0  0  0  0  0  0  0  0  0
   -0.5788    4.4820   -6.9172 H   0  0  0  0  0  0  0  0  0  0  0  0
   -0.9255    6.8066   -7.3254 H   0  0  0  0  0  0  0  0  0  0  0  0
    0.1665   -0.3927  -10.5250 Si  0  0  0  0  0  4  0  0  0  0  0  0
   -0.1803   -0.9765  -11.8158 H   0  0  0  0  0  0  0  0  0  0  0  0
   -0.7518    0.7065  -10.2220 H   0  0  0  0  0  0  0  0  0  0  0  0
    1.5270    0.1680  -10.5968 H   0  0  0  0  0  0  0  0  0  0  0  0
  1  2  1  0
  1  5  1  0
  2  3  1  0
  2  4  1  0
  2  8  1  0
  5  6  1  0
  5  7  1  0
  5 11  1  0
  8  9  1  0
  8 10  1  0
  8 17  1  0
 11 12  1  0
 11 13  1  0
 11 14  1  0
 14 15  1  0
 14 16  1  0
 14 23  1  0
 17 18  1  0
 17 19  1  0
 17 20  1  0
 20 21  1  0
 20 22  1  0
 20 26  1  0
 23 24  1  0
 23 25  1  0
 23 29  1  0
 26 27  1  0
 26 28  1  0
 26 36  1  0
 29 30  1  0
 29 31  1  0
 29 32  1  0
 32 33  1  0
 32 34  1  0
 32 35  1  0
 36 37  1  0
 36 38  1  0
 36 39  1  0
M  CHG  1   1   1
M  RAD  1   1   2
M  END
$$$$

     RDKit          3D

 39 38  0  0  0  0  0  0  0  0999 V2000
    1.1056    0.3943   -2.1347 S   0  0  0  0  0  2  0  0  0  0  0  0
   -0.9421    0.8754   -1.9772 Si  0  0  0  0  0  4  0  0  0  0  0  0
   -1.1174    2.2354   -1.4801 H   0  0  0  0  0  0  0  0  0  0  0  0
   -1.5587   -0.0324   -0.9682 H   0  0  0  0  0  0  0  0  0  0  0  0
    1.9937    0.9603   -3.9662 Si  0  0  0  0  0  4  0  0  0  0  0  0
    1.4527    2.1863   -4.5364 H   0  0  0  0  0  0  0  0  0  0  0  0
    3.4445    1.2054   -3.7271 H   0  0  0  0  0  0  0  0  0  0  0  0
   -2.0465    0.5976   -3.9002 Si  0  0  0  0  0  4  0  0  0  0  0  0
   -3.4749    0.3668   -3.5360 H   0  0  0  0  0  0  0  0  0  0  0  0
   -1.6036   -0.5981   -4.6045 H   0  0  0  0  0  0  0  0  0  0  0  0
    1.8662   -0.7619   -5.3905 Si  0  0  0  0  0  4  0  0  0  0  0  0
    2.7173   -1.8511   -4.8563 H   0  0  0  0  0  0  0  0  0  0  0  0
    0.5140   -1.2870   -5.4995 H   0  0  0  0  0  0  0  0  0  0  0  0
    2.5305   -0.1346   -7.4255 Si  0  0  0  0  0  4  0  0  0  0  0  0
    3.2156    1.1535   -7.3704 H   0  0  0  0  0  0  0  0  0  0  0  0
    1.3985   -0.0375   -8.3308 H   0  0  0  0  0  0  0  0  0  0  0  0
   -1.9519    2.4360   -5.1180 Si  0  0  0  0  0  4  0  0  0  0  0  0
   -0.7222    3.1811   -4.7362 H   0  0  0  0  0  0  0  0  0  0  0  0
   -3.0793    3.3295   -4.7260 H   0  0  0  0  0  0  0  0  0  0  0  0
   -2.0386    2.0975   -7.2771 Si  0  0  0  0  0  4  0  0  0  0  0  0
   -3.1778    2.8282   -7.9009 H   0  0  0  0  0  0  0  0  0  0  0  0
   -0.8211    2.6714   -7.9102 H   0  0  0  0  0  0  0  0  0  0  0  0
    3.8869   -1.7499   -8.2126 Si  0  0  0  0  0  4  0  0  0  0  0  0
    4.4130   -1.3983   -9.5264 H   0  0  0  0  0  0  0  0  0  0  0  0
    3.1097   -2.9900   -8.2237 H   0  0  0  0  0  0  0  0  0  0  0  0
   -2.1847   -0.0206   -7.8669 Si  0  0  0  0  0  4  0  0  0  0  0  0
   -0.8669   -0.6941   -7.8862 H   0  0  0  0  0  0  0  0  0  0  0  0
   -2.6708   -0.0688   -9.2767 H   0  0  0  0  0  0  0  0  0  0  0  0
    5.5605   -1.9586   -6.7197 Si  0  0  0  0  0  4  0  0  0  0  0  0
    5.0027   -2.7213   -5.5804 H   0  0  0  0  0  0  0  0  0  0  0  0
    6.7183   -2.6171   -7.3107 H   0  0  0  0  0  0  0  0  0  0  0  0
    6.0440    0.0952   -5.9819 Si  0  0  0  0  0  4  0  0  0  0  0  0
    4.9510    1.0424   -6.2835 H   0  0  0  0  0  0  0  0  0  0  0  0
    6.2225    0.0915   -4.5247 H   0  0  0  0  0  0  0  0  0  0  0  0
    7.2388    0.5661   -6.6922 H   0  0  0  0  0  0  0  0  0  0  0  0
   -3.6246   -1.1687   -6.6340 Si  0  0  0  0  0  4  0  0  0  0  0  0
   -4.3985   -0.3065   -5.7491 H   0  0  0  0  0  0  0  0  0  0  0  0
   -2.8773   -2.1981   -5.8769 H   0  0  0  0  0  0  0  0  0  0  0  0
   -4.5940   -1.9129   -7.4763 H   0  0  0  0  0  0  0  0  0  0  0  0
  1  2  1  0
  1  5  1  0
  2  3  1  0
  2  4  1  0
  2  8  1  0
  5  6  1  0
  5  7  1  0
  5 11  1  0
  8  9  1  0
  8 10  1  0
  8 17  1  0
 11 12  1  0
 11 13  1  0
 11 14  1  0
 14 15  1  0
 14 16  1  0
 14 23  1  0
 17 18  1  0
 17 19  1  0
 17 20  1  0
 20 21  1  0
 20 22  1  0
 20 26  1  0
 23 24  1  0
 23 25  1  0
 23 29  1  0
 26 27  1  0
 26 28  1  0
 26 36  1  0
 29 30  1  0
 29 31  1  0
 29 32  1  0
 32 33  1  0
 32 34  1  0
 32 35  1  0
 36 37  1  0
 36 38  1  0
 36 39  1  0
M  CHG  1   1   1
M  RAD  1   1   2
M  END
$$$$

     RDKit          3D

 39 38  0  0  0  0  0  0  0  0999 V2000
    1.1056    0.3943   -2.1347 S   0  0  0  0  0  2  0  0  0  0  0  0
    1.7632    2.4122   -1.8081 Si  0  0  0  0  0  4  0  0  0  0  0  0
    3.2147    2.4997   -1.6492 H   0  0  0  0  0  0  0  0  0  0  0  0
    1.1239    2.9635   -0.6040 H   0  0  0  0  0  0  0  0  0  0  0  0
    1.1792   -0.1543   -4.1837 Si  0  0  0  0  0  4  0  0  0  0  0  0
   -0.1705   -0.1366   -4.8191 H   0  0  0  0  0  0  0  0  0  0  0  0
    2.0614    0.7711   -4.8893 H   0  0  0  0  0  0  0  0  0  0  0  0
    1.0591    3.6736   -3.5380 Si  0  0  0  0  0  4  0  0  0  0  0  0
    2.2177    3.7837   -4.4575 H   0  0  0  0  0  0  0  0  0  0  0  0
    0.7352    5.0268   -3.1022 H   0  0  0  0  0  0  0  0  0  0  0  0
    1.8989   -2.2759   -4.4431 Si  0  0  0  0  0  4  0  0  0  0  0  0
    3.2944   -2.3822   -4.0748 H   0  0  0  0  0  0  0  0  0  0  0  0
    1.0087   -3.1148   -3.6264 H   0  0  0  0  0  0  0  0  0  0  0  0
    1.5443   -2.7947   -6.5965 Si  0  0  0  0  0  4  0  0  0  0  0  0
    2.6251   -3.6302   -7.0798 H   0  0  0  0  0  0  0  0  0  0  0  0
    0.2280   -3.4571   -6.7553 H   0  0  0  0  0  0  0  0  0  0  0  0
   -0.6404    2.6627   -4.5531 Si  0  0  0  0  0  4  0  0  0  0  0  0
   -0.1515    2.0608   -5.7840 H   0  0  0  0  0  0  0  0  0  0  0  0
   -1.1953    1.6670   -3.6121 H   0  0  0  0  0  0  0  0  0  0  0  0
   -2.2732    4.0826   -5.0664 Si  0  0  0  0  0  4  0  0  0  0  0  0
   -3.5912    3.4222   -4.8445 H   0  0  0  0  0  0  0  0  0  0  0  0
   -2.2385    5.2449   -4.1674 H   0  0  0  0  0  0  0  0  0  0  0  0
    1.4635   -0.9292   -7.8454 Si  0  0  0  0  0  4  0  0  0  0  0  0
    0.3488   -0.0751   -7.4719 H   0  0  0  0  0  0  0  0  0  0  0  0
    1.2664   -1.3679   -9.2405 H   0  0  0  0  0  0  0  0  0  0  0  0
   -2.1832    4.7332   -7.1858 Si  0  0  0  0  0  4  0  0  0  0  0  0
   -1.3905    5.9658   -7.3396 H   0  0  0  0  0  0  0  0  0  0  0  0
   -3.5637    5.0432   -7.6217 H   0  0  0  0  0  0  0  0  0  0  0  0
    3.3854    0.1898   -7.7376 Si  0  0  0  0  0  4  0  0  0  0  0  0
    3.8916    0.1213   -6.3492 H   0  0  0  0  0  0  0  0  0  0  0  0
    4.3390   -0.4672   -8.6392 H   0  0  0  0  0  0  0  0  0  0  0  0
    3.0999    2.3123   -8.3592 Si  0  0  0  0  0  4  0  0  0  0  0  0
    1.8117    2.4495   -9.0570 H   0  0  0  0  0  0  0  0  0  0  0  0
    3.1452    3.1846   -7.1816 H   0  0  0  0  0  0  0  0  0  0  0  0
    4.1576    2.7387   -9.2992 H   0  0  0  0  0  0  0  0  0  0  0  0
   -1.4312    3.1077   -8.5229 Si  0  0  0  0  0  4  0  0  0  0  0  0
   -0.9399    3.7060   -9.7828 H   0  0  0  0  0  0  0  0  0  0  0  0
   -0.3802    2.3150   -7.8579 H   0  0  0  0  0  0  0  0  0  0  0  0
   -2.5721    2.2495   -8.8829 H   0  0  0  0  0  0  0  0  0  0  0  0
  1  2  1  0
  1  5  1  0
  2  3  1  0
  2  4  1  0
  2  8  1  0
  5  6  1  0
  5  7  1  0
  5 11  1  0
  8  9  1  0
  8 10  1  0
  8 17  1  0
 11 12  1  0
 11 13  1  0
 11 14  1  0
 14 15  1  0
 14 16  1  0
 14 23  1  0
 17 18  1  0
 17 19  1  0
 17 20  1  0
 20 21  1  0
 20 22  1  0
 20 26  1  0
 23 24  1  0
 23 25  1  0
 23 29  1  0
 26 27  1  0
 26 28  1  0
 26 36  1  0
 29 30  1  0
 29 31  1  0
 29 32  1  0
 32 33  1  0
 32 34  1  0
 32 35  1  0
 36 37  1  0
 36 38  1  0
 36 39  1  0
M  CHG  1   1   1
M  RAD  1   1   2
M  END
$$$$

     RDKit          3D

 39 38  0  0  0  0  0  0  0  0999 V2000
    1.1056    0.3943   -2.1347 S   0  0  0  0  0  2  0  0  0  0  0  0
    0.0541    2.2612   -2.2770 Si  0  0  0  0  0  4  0  0  0  0  0  0
    0.8710    3.3891   -1.8294 H   0  0  0  0  0  0  0  0  0  0  0  0
   -1.1703    2.2149   -1.4638 H   0  0  0  0  0  0  0  0  0  0  0  0
    2.2750   -0.0042   -3.8606 Si  0  0  0  0  0  4  0  0  0  0  0  0
    1.6282   -1.0044   -4.7589 H   0  0  0  0  0  0  0  0  0  0  0  0
    2.4810    1.2439   -4.5902 H   0  0  0  0  0  0  0  0  0  0  0  0
   -0.6093    2.5374   -4.4131 Si  0  0  0  0  0  4  0  0  0  0  0  0
    0.4006    3.4248   -5.0398 H   0  0  0  0  0  0  0  0  0  0  0  0
   -1.8864    3.2380   -4.4788 H   0  0  0  0  0  0  0  0  0  0  0  0
    4.2576   -0.9311   -3.3163 Si  0  0  0  0  0  4  0  0  0  0  0  0
    5.0914    0.0320   -2.6297 H   0  0  0  0  0  0  0  0  0  0  0  0
    3.9474   -2.1218   -2.5106 H   0  0  0  0  0  0  0  0  0  0  0  0
    5.1697   -1.6267   -5.2439 Si  0  0  0  0  0  4  0  0  0  0  0  0
    6.6039   -1.4229   -5.2048 H   0  0  0  0  0  0  0  0  0  0  0  0
    4.8258   -3.0468   -5.4922 H   0  0  0  0  0  0  0  0  0  0  0  0
   -0.6510    0.5667   -5.4404 Si  0  0  0  0  0  4  0  0  0  0  0  0
    0.5204    0.4676   -6.2973 H   0  0  0  0  0  0  0  0  0  0  0  0
   -0.6860   -0.4805   -4.3978 H   0  0  0  0  0  0  0  0  0  0  0  0
   -2.4661    0.3182   -6.7011 Si  0  0  0  0  0  4  0  0  0  0  0  0
   -2.9526   -1.0870   -6.5966 H   0  0  0  0  0  0  0  0  0  0  0  0
   -3.5546    1.1692   -6.1998 H   0  0  0  0  0  0  0  0  0  0  0  0
    4.3249   -0.4647   -6.9710 Si  0  0  0  0  0  4  0  0  0  0  0  0
    2.8970   -0.6849   -7.1252 H   0  0  0  0  0  0  0  0  0  0  0  0
    5.0058   -0.9612   -8.1823 H   0  0  0  0  0  0  0  0  0  0  0  0
   -2.0653    0.7450   -8.8413 Si  0  0  0  0  0  4  0  0  0  0  0  0
   -2.3258    2.1578   -9.1688 H   0  0  0  0  0  0  0  0  0  0  0  0
   -3.0013   -0.0711   -9.6472 H   0  0  0  0  0  0  0  0  0  0  0  0
    4.7710    1.7074   -6.7685 Si  0  0  0  0  0  4  0  0  0  0  0  0
    4.6319    2.0848   -5.3448 H   0  0  0  0  0  0  0  0  0  0  0  0
    6.1573    1.9234   -7.1990 H   0  0  0  0  0  0  0  0  0  0  0  0
    3.3912    2.9186   -8.0342 Si  0  0  0  0  0  4  0  0  0  0  0  0
    2.7268    2.0424   -9.0119 H   0  0  0  0  0  0  0  0  0  0  0  0
    2.4016    3.5908   -7.1864 H   0  0  0  0  0  0  0  0  0  0  0  0
    4.1314    3.9465   -8.7956 H   0  0  0  0  0  0  0  0  0  0  0  0
    0.0017    0.1377   -9.4369 Si  0  0  0  0  0  4  0  0  0  0  0  0
    0.3797    0.8556  -10.6732 H   0  0  0  0  0  0  0  0  0  0  0  0
    0.9655    0.3931   -8.3502 H   0  0  0  0  0  0  0  0  0  0  0  0
   -0.0240   -1.2950   -9.7750 H   0  0  0  0  0  0  0  0  0  0  0  0
  1  2  1  0
  1  5  1  0
  2  3  1  0
  2  4  1  0
  2  8  1  0
  5  6  1  0
  5  7  1  0
  5 11  1  0
  8  9  1  0
  8 10  1  0
  8 17  1  0
 11 12  1  0
 11 13  1  0
 11 14  1  0
 14 15  1  0
 14 16  1  0
 14 23  1  0
 17 18  1  0
 17 19  1  0
 17 20  1  0
 20 21  1  0
 20 22  1  0
 20 26  1  0
 23 24  1  0
 23 25  1  0
 23 29  1  0
 26 27  1  0
 26 28  1  0
 26 36  1  0
 29 30  1  0
 29 31  1  0
 29 32  1  0
 32 33  1  0
 32 34  1  0
 32 35  1  0
 36 37  1  0
 36 38  1  0
 36 39  1  0
M  CHG  1   1   1
M  RAD  1   1   2
M  END
$$$$

     RDKit          3D

 39 38  0  0  0  0  0  0  0  0999 V2000
    1.1056    0.3943   -2.1347 S   0  0  0  0  0  2  0  0  0  0  0  0
    2.7462    0.4964   -3.4681 Si  0  0  0  0  0  4  0  0  0  0  0  0
    3.5079    1.7497   -3.3551 H   0  0  0  0  0  0  0  0  0  0  0  0
    3.6969   -0.5895   -3.0891 H   0  0  0  0  0  0  0  0  0  0  0  0
   -0.2443    1.9980   -2.2840 Si  0  0  0  0  0  4  0  0  0  0  0  0
   -1.6164    1.4486   -2.4807 H   0  0  0  0  0  0  0  0  0  0  0  0
   -0.2984    2.7054   -0.9768 H   0  0  0  0  0  0  0  0  0  0  0  0
    2.1885    0.1977   -5.5809 Si  0  0  0  0  0  4  0  0  0  0  0  0
    3.3238   -0.4688   -6.2810 H   0  0  0  0  0  0  0  0  0  0  0  0
    1.9279    1.4365   -6.3033 H   0  0  0  0  0  0  0  0  0  0  0  0
    0.2786    3.4789   -3.8366 Si  0  0  0  0  0  4  0  0  0  0  0  0
    0.6116    4.8033   -3.2379 H   0  0  0  0  0  0  0  0  0  0  0  0
    1.4530    3.0908   -4.6305 H   0  0  0  0  0  0  0  0  0  0  0  0
   -1.5216    3.7784   -5.1501 Si  0  0  0  0  0  4  0  0  0  0  0  0
   -2.5049    2.7013   -4.9315 H   0  0  0  0  0  0  0  0  0  0  0  0
   -1.1674    3.7982   -6.5564 H   0  0  0  0  0  0  0  0  0  0  0  0
    0.4161   -1.1296   -5.8205 Si  0  0  0  0  0  4  0  0  0  0  0  0
   -0.8001   -0.5479   -5.2761 H   0  0  0  0  0  0  0  0  0  0  0  0
    0.6795   -2.4432   -5.2024 H   0  0  0  0  0  0  0  0  0  0  0  0
    0.0930   -1.4573   -8.0153 Si  0  0  0  0  0  4  0  0  0  0  0  0
    1.2131   -0.9052   -8.8050 H   0  0  0  0  0  0  0  0  0  0  0  0
    0.0571   -2.9078   -8.3242 H   0  0  0  0  0  0  0  0  0  0  0  0
   -2.5514    5.6968   -4.5647 Si  0  0  0  0  0  4  0  0  0  0  0  0
   -3.2388    5.4910   -3.2848 H   0  0  0  0  0  0  0  0  0  0  0  0
   -3.4780    6.1360   -5.5878 H   0  0  0  0  0  0  0  0  0  0  0  0
   -1.7663   -0.4384   -8.7114 Si  0  0  0  0  0  4  0  0  0  0  0  0
   -2.6215   -1.4451   -9.3382 H   0  0  0  0  0  0  0  0  0  0  0  0
   -2.4866    0.1357   -7.5769 H   0  0  0  0  0  0  0  0  0  0  0  0
   -0.9221    7.2141   -4.2258 Si  0  0  0  0  0  4  0  0  0  0  0  0
   -0.4948    7.1340   -2.8318 H   0  0  0  0  0  0  0  0  0  0  0  0
   -1.3801    8.5532   -4.5938 H   0  0  0  0  0  0  0  0  0  0  0  0
    0.8294    6.6469   -5.5025 Si  0  0  0  0  0  4  0  0  0  0  0  0
    2.0367    6.4268   -4.6854 H   0  0  0  0  0  0  0  0  0  0  0  0
    0.5458    5.4006   -6.2628 H   0  0  0  0  0  0  0  0  0  0  0  0
    1.1218    7.7072   -6.4599 H   0  0  0  0  0  0  0  0  0  0  0  0
   -1.3098    1.1387  -10.2285 Si  0  0  0  0  0  4  0  0  0  0  0  0
   -2.0525    0.9109  -11.4630 H   0  0  0  0  0  0  0  0  0  0  0  0
   -1.6431    2.4600   -9.6931 H   0  0  0  0  0  0  0  0  0  0  0  0
    0.1338    1.1264  -10.5226 H   0  0  0  0  0  0  0  0  0  0  0  0
  1  2  1  0
  1  5  1  0
  2  3  1  0
  2  4  1  0
  2  8  1  0
  5  6  1  0
  5  7  1  0
  5 11  1  0
  8  9  1  0
  8 10  1  0
  8 17  1  0
 11 12  1  0
 11 13  1  0
 11 14  1  0
 14 15  1  0
 14 16  1  0
 14 23  1  0
 17 18  1  0
 17 19  1  0
 17 20  1  0
 20 21  1  0
 20 22  1  0
 20 26  1  0
 23 24  1  0
 23 25  1  0
 23 29  1  0
 26 27  1  0
 26 28  1  0
 26 36  1  0
 29 30  1  0
 29 31  1  0
 29 32  1  0
 32 33  1  0
 32 34  1  0
 32 35  1  0
 36 37  1  0
 36 38  1  0
 36 39  1  0
M  CHG  1   1   1
M  RAD  1   1   2
M  END
$$$$

     RDKit          3D

 39 38  0  0  0  0  0  0  0  0999 V2000
    1.1056    0.3943   -2.1347 S   0  0  0  0  0  2  0  0  0  0  0  0
    0.1314    2.2656   -2.3396 Si  0  0  0  0  0  4  0  0  0  0  0  0
   -0.0551    2.8943   -1.0059 H   0  0  0  0  0  0  0  0  0  0  0  0
   -1.2365    2.0194   -2.8554 H   0  0  0  0  0  0  0  0  0  0  0  0
    2.7662    0.1642   -3.4335 Si  0  0  0  0  0  4  0  0  0  0  0  0
    3.5327   -1.0340   -2.9865 H   0  0  0  0  0  0  0  0  0  0  0  0
    3.7198    1.2944   -3.3472 H   0  0  0  0  0  0  0  0  0  0  0  0
    1.2575    3.6900   -3.6069 Si  0  0  0  0  0  4  0  0  0  0  0  0
    1.8257    3.0119   -4.7703 H   0  0  0  0  0  0  0  0  0  0  0  0
    2.3778    4.2279   -2.7977 H   0  0  0  0  0  0  0  0  0  0  0  0
    2.1754   -0.1753   -5.5415 Si  0  0  0  0  0  4  0  0  0  0  0  0
    2.5920   -1.5153   -6.0255 H   0  0  0  0  0  0  0  0  0  0  0  0
    2.8686    0.8056   -6.4125 H   0  0  0  0  0  0  0  0  0  0  0  0
   -0.0093    0.0042   -5.8582 Si  0  0  0  0  0  4  0  0  0  0  0  0
   -0.6661    0.8631   -4.8807 H   0  0  0  0  0  0  0  0  0  0  0  0
   -0.6503   -1.3286   -5.8456 H   0  0  0  0  0  0  0  0  0  0  0  0
   -0.0797    5.3854   -4.2237 Si  0  0  0  0  0  4  0  0  0  0  0  0
    0.8125    6.5199   -4.5633 H   0  0  0  0  0  0  0  0  0  0  0  0
   -0.8310    4.9947   -5.4349 H   0  0  0  0  0  0  0  0  0  0  0  0
   -1.4358    5.9609   -2.5632 Si  0  0  0  0  0  4  0  0  0  0  0  0
   -1.3681    4.9174   -1.5253 H   0  0  0  0  0  0  0  0  0  0  0  0
   -0.9517    7.2275   -1.9683 H   0  0  0  0  0  0  0  0  0  0  0  0
   -0.4180    0.8837   -7.8885 Si  0  0  0  0  0  4  0  0  0  0  0  0
   -0.0297    2.3017   -7.9350 H   0  0  0  0  0  0  0  0  0  0  0  0
    0.3332    0.1258   -8.9066 H   0  0  0  0  0  0  0  0  0  0  0  0
   -3.5453    6.1421   -3.2189 Si  0  0  0  0  0  4  0  0  0  0  0  0
   -4.3486    5.0187   -2.7329 H   0  0  0  0  0  0  0  0  0  0  0  0
   -4.0986    7.3844   -2.6434 H   0  0  0  0  0  0  0  0  0  0  0  0
   -2.6154    0.7100   -8.2525 Si  0  0  0  0  0  4  0  0  0  0  0  0
   -2.8802   -0.4787   -9.0659 H   0  0  0  0  0  0  0  0  0  0  0  0
   -3.3326    0.6043   -6.9673 H   0  0  0  0  0  0  0  0  0  0  0  0
   -3.4128    2.4862   -9.3267 Si  0  0  0  0  0  4  0  0  0  0  0  0
   -4.6283    2.0764  -10.0381 H   0  0  0  0  0  0  0  0  0  0  0  0
   -3.7835    3.5581   -8.3904 H   0  0  0  0  0  0  0  0  0  0  0  0
   -2.4691    3.0345  -10.2925 H   0  0  0  0  0  0  0  0  0  0  0  0
   -3.7394    6.2700   -5.4250 Si  0  0  0  0  0  4  0  0  0  0  0  0
   -3.6765    4.9336   -6.0383 H   0  0  0  0  0  0  0  0  0  0  0  0
   -5.0894    6.8022   -5.7316 H   0  0  0  0  0  0  0  0  0  0  0  0
   -2.7426    7.1719   -5.9998 H   0  0  0  0  0  0  0  0  0  0  0  0
  1  2  1  0
  1  5  1  0
  2  3  1  0
  2  4  1  0
  2  8  1  0
  5  6  1  0
  5  7  1  0
  5 11  1  0
  8  9  1  0
  8 10  1  0
  8 17  1  0
 11 12  1  0
 11 13  1  0
 11 14  1  0
 14 15  1  0
 14 16  1  0
 14 23  1  0
 17 18  1  0
 17 19  1  0
 17 20  1  0
 20 21  1  0
 20 22  1  0
 20 26  1  0
 23 24  1  0
 23 25  1  0
 23 29  1  0
 26 27  1  0
 26 28  1  0
 26 36  1  0
 29 30  1  0
 29 31  1  0
 29 32  1  0
 32 33  1  0
 32 34  1  0
 32 35  1  0
 36 37  1  0
 36 38  1  0
 36 39  1  0
M  CHG  1   1   1
M  RAD  1   1   2
M  END
$$$$

     RDKit          3D

 39 38  0  0  0  0  0  0  0  0999 V2000
    1.1056    0.3943   -2.1347 S   0  0  0  0  0  2  0  0  0  0  0  0
    0.7255    2.5044   -2.0152 Si  0  0  0  0  0  4  0  0  0  0  0  0
    1.9200    3.2587   -1.6358 H   0  0  0  0  0  0  0  0  0  0  0  0
   -0.3329    2.7723   -1.0301 H   0  0  0  0  0  0  0  0  0  0  0  0
    1.8508   -0.1827   -4.0365 Si  0  0  0  0  0  4  0  0  0  0  0  0
    0.8014   -0.8260   -4.8796 H   0  0  0  0  0  0  0  0  0  0  0  0
    2.3672    0.9999   -4.7202 H   0  0  0  0  0  0  0  0  0  0  0  0
   -0.0696    3.1931   -4.0084 Si  0  0  0  0  0  4  0  0  0  0  0  0
    1.0912    3.7673   -4.7315 H   0  0  0  0  0  0  0  0  0  0  0  0
   -1.0388    4.2698   -3.8423 H   0  0  0  0  0  0  0  0  0  0  0  0
    3.4640   -1.7475   -3.8490 Si  0  0  0  0  0  4  0  0  0  0  0  0
    4.6494   -1.1779   -3.2452 H   0  0  0  0  0  0  0  0  0  0  0  0
    2.8788   -2.8502   -3.0714 H   0  0  0  0  0  0  0  0  0  0  0  0
    3.8447   -2.5011   -5.9272 Si  0  0  0  0  0  4  0  0  0  0  0  0
    5.2580   -2.7741   -6.0942 H   0  0  0  0  0  0  0  0  0  0  0  0
    3.0200   -3.7027   -6.1971 H   0  0  0  0  0  0  0  0  0  0  0  0
   -0.8920    1.4546   -5.1227 Si  0  0  0  0  0  4  0  0  0  0  0  0
    0.0631    1.0711   -6.1510 H   0  0  0  0  0  0  0  0  0  0  0  0
   -1.1426    0.3745   -4.1451 H   0  0  0  0  0  0  0  0  0  0  0  0
   -2.8288    1.9310   -6.1063 Si  0  0  0  0  0  4  0  0  0  0  0  0
   -3.7377    0.7536   -6.0057 H   0  0  0  0  0  0  0  0  0  0  0  0
   -3.5009    3.0315   -5.4010 H   0  0  0  0  0  0  0  0  0  0  0  0
    3.2256   -0.9614   -7.4412 Si  0  0  0  0  0  4  0  0  0  0  0  0
    1.7982   -0.6942   -7.3896 H   0  0  0  0  0  0  0  0  0  0  0  0
    3.5458   -1.5255   -8.7666 H   0  0  0  0  0  0  0  0  0  0  0  0
   -2.5795    2.4199   -8.2562 Si  0  0  0  0  0  4  0  0  0  0  0  0
   -2.3943    3.8669   -8.4636 H   0  0  0  0  0  0  0  0  0  0  0  0
   -3.8265    2.0335   -8.9544 H   0  0  0  0  0  0  0  0  0  0  0  0
    4.3900    0.9200   -7.1912 Si  0  0  0  0  0  4  0  0  0  0  0  0
    4.5632    1.1765   -5.7446 H   0  0  0  0  0  0  0  0  0  0  0  0
    5.7040    0.7213   -7.8139 H   0  0  0  0  0  0  0  0  0  0  0  0
    3.3447    2.6316   -8.1664 Si  0  0  0  0  0  4  0  0  0  0  0  0
    2.3102    2.1186   -9.0785 H   0  0  0  0  0  0  0  0  0  0  0  0
    2.7490    3.4970   -7.1437 H   0  0  0  0  0  0  0  0  0  0  0  0
    4.2833    3.4383   -8.9741 H   0  0  0  0  0  0  0  0  0  0  0  0
   -0.9235    1.2439   -9.1893 Si  0  0  0  0  0  4  0  0  0  0  0  0
   -0.4859    1.9231  -10.4278 H   0  0  0  0  0  0  0  0  0  0  0  0
    0.1981    1.0650   -8.2485 H   0  0  0  0  0  0  0  0  0  0  0  0
   -1.4661   -0.0628   -9.5968 H   0  0  0  0  0  0  0  0  0  0  0  0
  1  2  1  0
  1  5  1  0
  2  3  1  0
  2  4  1  0
  2  8  1  0
  5  6  1  0
  5  7  1  0
  5 11  1  0
  8  9  1  0
  8 10  1  0
  8 17  1  0
 11 12  1  0
 11 13  1  0
 11 14  1  0
 14 15  1  0
 14 16  1  0
 14 23  1  0
 17 18  1  0
 17 19  1  0
 17 20  1  0
 20 21  1  0
 20 22  1  0
 20 26  1  0
 23 24  1  0
 23 25  1  0
 23 29  1  0
 26 27  1  0
 26 28  1  0
 26 36  1  0
 29 30  1  0
 29 31  1  0
 29 32  1  0
 32 33  1  0
 32 34  1  0
 32 35  1  0
 36 37  1  0
 36 38  1  0
 36 39  1  0
M  CHG  1   1   1
M  RAD  1   1   2
M  END
$$$$

     RDKit          3D

 39 38  0  0  0  0  0  0  0  0999 V2000
    1.1056    0.3943   -2.1347 S   0  0  0  0  0  2  0  0  0  0  0  0
   -0.5079   -0.0056   -3.4498 Si  0  0  0  0  0  4  0  0  0  0  0  0
   -1.7771   -0.1151   -2.6845 H   0  0  0  0  0  0  0  0  0  0  0  0
   -0.2921   -1.3434   -4.0511 H   0  0  0  0  0  0  0  0  0  0  0  0
    2.3130    2.0232   -2.7562 Si  0  0  0  0  0  4  0  0  0  0  0  0
    3.2038    2.3913   -1.6186 H   0  0  0  0  0  0  0  0  0  0  0  0
    1.5228    3.2422   -3.0459 H   0  0  0  0  0  0  0  0  0  0  0  0
   -0.7782    1.5660   -4.9861 Si  0  0  0  0  0  4  0  0  0  0  0  0
    0.5134    2.0140   -5.5026 H   0  0  0  0  0  0  0  0  0  0  0  0
   -1.4390    2.7242   -4.3372 H   0  0  0  0  0  0  0  0  0  0  0  0
    3.6115    1.5288   -4.4818 Si  0  0  0  0  0  4  0  0  0  0  0  0
    5.0519    1.5954   -4.1292 H   0  0  0  0  0  0  0  0  0  0  0  0
    3.4085    2.5320   -5.5558 H   0  0  0  0  0  0  0  0  0  0  0  0
    3.2133   -0.4895   -5.3026 Si  0  0  0  0  0  4  0  0  0  0  0  0
    1.8562   -0.9579   -5.0514 H   0  0  0  0  0  0  0  0  0  0  0  0
    4.1769   -1.4728   -4.7621 H   0  0  0  0  0  0  0  0  0  0  0  0
   -2.0958    0.8020   -6.6364 Si  0  0  0  0  0  4  0  0  0  0  0  0
   -2.6722    1.9967   -7.2988 H   0  0  0  0  0  0  0  0  0  0  0  0
   -1.2686    0.0693   -7.6177 H   0  0  0  0  0  0  0  0  0  0  0  0
   -3.7225   -0.4681   -5.8191 Si  0  0  0  0  0  4  0  0  0  0  0  0
   -3.4113   -0.7730   -4.4118 H   0  0  0  0  0  0  0  0  0  0  0  0
   -4.9887    0.2990   -5.8500 H   0  0  0  0  0  0  0  0  0  0  0  0
    3.5047   -0.4788   -7.5337 Si  0  0  0  0  0  4  0  0  0  0  0  0
    2.4407    0.2887   -8.1991 H   0  0  0  0  0  0  0  0  0  0  0  0
    4.8191    0.1112   -7.8493 H   0  0  0  0  0  0  0  0  0  0  0  0
   -3.9252   -2.3872   -6.9094 Si  0  0  0  0  0  4  0  0  0  0  0  0
   -3.4195   -3.5052   -6.1108 H   0  0  0  0  0  0  0  0  0  0  0  0
   -5.3610   -2.6191   -7.1654 H   0  0  0  0  0  0  0  0  0  0  0  0
    3.4194   -2.6030   -8.2203 Si  0  0  0  0  0  4  0  0  0  0  0  0
    4.7814   -3.1213   -8.3651 H   0  0  0  0  0  0  0  0  0  0  0  0
    2.6767   -3.4199   -7.2414 H   0  0  0  0  0  0  0  0  0  0  0  0
    2.3857   -2.7917  -10.1801 Si  0  0  0  0  0  4  0  0  0  0  0  0
    2.8703   -4.0135  -10.8311 H   0  0  0  0  0  0  0  0  0  0  0  0
    0.9309   -2.9240  -10.0090 H   0  0  0  0  0  0  0  0  0  0  0  0
    2.6370   -1.6605  -11.0639 H   0  0  0  0  0  0  0  0  0  0  0  0
   -2.8811   -2.3648   -8.8665 Si  0  0  0  0  0  4  0  0  0  0  0  0
   -1.4423   -2.6259   -8.6997 H   0  0  0  0  0  0  0  0  0  0  0  0
   -3.4132   -3.4868   -9.6775 H   0  0  0  0  0  0  0  0  0  0  0  0
   -3.1201   -1.1158   -9.5877 H   0  0  0  0  0  0  0  0  0  0  0  0
  1  2  1  0
  1  5  1  0
  2  3  1  0
  2  4  1  0
  2  8  1  0
  5  6  1  0
  5  7  1  0
  5 11  1  0
  8  9  1  0
  8 10  1  0
  8 17  1  0
 11 12  1  0
 11 13  1  0
 11 14  1  0
 14 15  1  0
 14 16  1  0
 14 23  1  0
 17 18  1  0
 17 19  1  0
 17 20  1  0
 20 21  1  0
 20 22  1  0
 20 26  1  0
 23 24  1  0
 23 25  1  0
 23 29  1  0
 26 27  1  0
 26 28  1  0
 26 36  1  0
 29 30  1  0
 29 31  1  0
 29 32  1  0
 32 33  1  0
 32 34  1  0
 32 35  1  0
 36 37  1  0
 36 38  1  0
 36 39  1  0
M  CHG  1   1   1
M  RAD  1   1   2
M  END
$$$$

     RDKit          3D

 39 38  0  0  0  0  0  0  0  0999 V2000
    1.1056    0.3943   -2.1347 S   0  0  0  0  0  2  0  0  0  0  0  0
    2.7910    1.1387   -3.1884 Si  0  0  0  0  0  4  0  0  0  0  0  0
    2.9972    2.5669   -2.9523 H   0  0  0  0  0  0  0  0  0  0  0  0
    3.9874    0.4135   -2.7180 H   0  0  0  0  0  0  0  0  0  0  0  0
   -0.6304    1.6031   -2.4019 Si  0  0  0  0  0  4  0  0  0  0  0  0
   -1.0945    1.5478   -3.7841 H   0  0  0  0  0  0  0  0  0  0  0  0
   -1.6992    1.0448   -1.5441 H   0  0  0  0  0  0  0  0  0  0  0  0
    2.6091    0.8139   -5.3865 Si  0  0  0  0  0  4  0  0  0  0  0  0
    1.4620    1.5489   -5.9163 H   0  0  0  0  0  0  0  0  0  0  0  0
    3.8277    1.2844   -6.0379 H   0  0  0  0  0  0  0  0  0  0  0  0
   -0.2898    3.7150   -1.8159 Si  0  0  0  0  0  4  0  0  0  0  0  0
   -1.6188    4.3224   -1.5456 H   0  0  0  0  0  0  0  0  0  0  0  0
    0.4579    3.7940   -0.5523 H   0  0  0  0  0  0  0  0  0  0  0  0
    0.6656    4.8972   -3.4356 Si  0  0  0  0  0  4  0  0  0  0  0  0
    0.3886    6.3294   -3.1848 H   0  0  0  0  0  0  0  0  0  0  0  0
    2.1150    4.7372   -3.4777 H   0  0  0  0  0  0  0  0  0  0  0  0
    2.3620   -1.3470   -5.8418 Si  0  0  0  0  0  4  0  0  0  0  0  0
    3.3454   -1.8350   -6.8112 H   0  0  0  0  0  0  0  0  0  0  0  0
    2.5841   -2.1230   -4.5918 H   0  0  0  0  0  0  0  0  0  0  0  0
    0.3330   -1.7964   -6.5979 Si  0  0  0  0  0  4  0  0  0  0  0  0
    0.3534   -3.0959   -7.3153 H   0  0  0  0  0  0  0  0  0  0  0  0
   -0.5627   -1.9635   -5.4199 H   0  0  0  0  0  0  0  0  0  0  0  0
   -0.2872    4.3457   -5.3772 Si  0  0  0  0  0  4  0  0  0  0  0  0
   -1.6506    4.9369   -5.3689 H   0  0  0  0  0  0  0  0  0  0  0  0
   -0.4841    2.8852   -5.4691 H   0  0  0  0  0  0  0  0  0  0  0  0
   -0.4962   -0.2013   -7.8708 Si  0  0  0  0  0  4  0  0  0  0  0  0
   -1.4336   -0.8245   -8.8444 H   0  0  0  0  0  0  0  0  0  0  0  0
   -1.2490    0.7383   -7.0390 H   0  0  0  0  0  0  0  0  0  0  0  0
    0.9212    5.1447   -7.0529 Si  0  0  0  0  0  4  0  0  0  0  0  0
    1.1816    4.1432   -8.0963 H   0  0  0  0  0  0  0  0  0  0  0  0
    0.1933    6.3116   -7.6207 H   0  0  0  0  0  0  0  0  0  0  0  0
    2.9000    5.9342   -6.3373 Si  0  0  0  0  0  4  0  0  0  0  0  0
    3.6515    4.8277   -5.7453 H   0  0  0  0  0  0  0  0  0  0  0  0
    3.6028    6.5152   -7.4740 H   0  0  0  0  0  0  0  0  0  0  0  0
    2.6141    6.9877   -5.3672 H   0  0  0  0  0  0  0  0  0  0  0  0
    1.0449    0.8896   -9.0233 Si  0  0  0  0  0  4  0  0  0  0  0  0
    1.5897    0.0949  -10.1294 H   0  0  0  0  0  0  0  0  0  0  0  0
    2.1528    1.3519   -8.2068 H   0  0  0  0  0  0  0  0  0  0  0  0
    0.3974    2.0988   -9.6078 H   0  0  0  0  0  0  0  0  0  0  0  0
  1  2  1  0
  1  5  1  0
  2  3  1  0
  2  4  1  0
  2  8  1  0
  5  6  1  0
  5  7  1  0
  5 11  1  0
  8  9  1  0
  8 10  1  0
  8 17  1  0
 11 12  1  0
 11 13  1  0
 11 14  1  0
 14 15  1  0
 14 16  1  0
 14 23  1  0
 17 18  1  0
 17 19  1  0
 17 20  1  0
 20 21  1  0
 20 22  1  0
 20 26  1  0
 23 24  1  0
 23 25  1  0
 23 29  1  0
 26 27  1  0
 26 28  1  0
 26 36  1  0
 29 30  1  0
 29 31  1  0
 29 32  1  0
 32 33  1  0
 32 34  1  0
 32 35  1  0
 36 37  1  0
 36 38  1  0
 36 39  1  0
M  CHG  1   1   1
M  RAD  1   1   2
M  END
$$$$

     RDKit          3D

 39 38  0  0  0  0  0  0  0  0999 V2000
    1.1056    0.3943   -2.1347 S   0  0  0  0  0  2  0  0  0  0  0  0
    0.3911    2.4193   -2.1303 Si  0  0  0  0  0  4  0  0  0  0  0  0
    1.4228    3.3666   -1.7081 H   0  0  0  0  0  0  0  0  0  0  0  0
   -0.7625    2.5464   -1.2273 H   0  0  0  0  0  0  0  0  0  0  0  0
    2.0632   -0.1172   -3.9585 Si  0  0  0  0  0  4  0  0  0  0  0  0
    1.1896   -0.9467   -4.8385 H   0  0  0  0  0  0  0  0  0  0  0  0
    2.4339    1.1100   -4.6579 H   0  0  0  0  0  0  0  0  0  0  0  0
   -0.3611    2.9076   -4.1980 Si  0  0  0  0  0  4  0  0  0  0  0  0
    0.7427    3.6362   -4.8694 H   0  0  0  0  0  0  0  0  0  0  0  0
   -1.4966    3.8205   -4.1405 H   0  0  0  0  0  0  0  0  0  0  0  0
    3.8853   -1.3974   -3.6014 Si  0  0  0  0  0  4  0  0  0  0  0  0
    4.9213   -0.6266   -2.9480 H   0  0  0  0  0  0  0  0  0  0  0  0
    3.4278   -2.5538   -2.8161 H   0  0  0  0  0  0  0  0  0  0  0  0
    4.5240   -2.1471   -5.6167 Si  0  0  0  0  0  4  0  0  0  0  0  0
    5.9708   -2.1961   -5.6812 H   0  0  0  0  0  0  0  0  0  0  0  0
    3.9194   -3.4731   -5.8870 H   0  0  0  0  0  0  0  0  0  0  0  0
   -0.8201    1.0251   -5.2870 Si  0  0  0  0  0  4  0  0  0  0  0  0
    0.2529    0.7662   -6.2347 H   0  0  0  0  0  0  0  0  0  0  0  0
   -0.9655   -0.0490   -4.2820 H   0  0  0  0  0  0  0  0  0  0  0  0
   -2.7341    1.1541   -6.4118 Si  0  0  0  0  0  4  0  0  0  0  0  0
   -3.4515   -0.1495   -6.3191 H   0  0  0  0  0  0  0  0  0  0  0  0
   -3.6185    2.1553   -5.7987 H   0  0  0  0  0  0  0  0  0  0  0  0
    3.7779   -0.7756   -7.2319 Si  0  0  0  0  0  4  0  0  0  0  0  0
    2.3263   -0.7384   -7.2831 H   0  0  0  0  0  0  0  0  0  0  0  0
    4.2746   -1.3238   -8.5087 H   0  0  0  0  0  0  0  0  0  0  0  0
   -2.4151    1.6070   -8.5604 Si  0  0  0  0  0  4  0  0  0  0  0  0
   -2.4457    3.0576   -8.8174 H   0  0  0  0  0  0  0  0  0  0  0  0
   -3.5340    1.0041   -9.3196 H   0  0  0  0  0  0  0  0  0  0  0  0
    4.6118    1.2746   -6.9890 Si  0  0  0  0  0  4  0  0  0  0  0  0
    4.6410    1.6019   -5.5465 H   0  0  0  0  0  0  0  0  0  0  0  0
    5.9809    1.2684   -7.5173 H   0  0  0  0  0  0  0  0  0  0  0  0
    3.3812    2.7649   -8.1014 Si  0  0  0  0  0  4  0  0  0  0  0  0
    2.5065    2.0643   -9.0549 H   0  0  0  0  0  0  0  0  0  0  0  0
    2.5868    3.5566   -7.1570 H   0  0  0  0  0  0  0  0  0  0  0  0
    4.2354    3.6847   -8.8814 H   0  0  0  0  0  0  0  0  0  0  0  0
   -0.5338    0.6812   -9.3345 Si  0  0  0  0  0  4  0  0  0  0  0  0
   -0.1229    1.3812  -10.5705 H   0  0  0  0  0  0  0  0  0  0  0  0
    0.5335    0.7141   -8.3171 H   0  0  0  0  0  0  0  0  0  0  0  0
   -0.8344   -0.7079   -9.7193 H   0  0  0  0  0  0  0  0  0  0  0  0
  1  2  1  0
  1  5  1  0
  2  3  1  0
  2  4  1  0
  2  8  1  0
  5  6  1  0
  5  7  1  0
  5 11  1  0
  8  9  1  0
  8 10  1  0
  8 17  1  0
 11 12  1  0
 11 13  1  0
 11 14  1  0
 14 15  1  0
 14 16  1  0
 14 23  1  0
 17 18  1  0
 17 19  1  0
 17 20  1  0
 20 21  1  0
 20 22  1  0
 20 26  1  0
 23 24  1  0
 23 25  1  0
 23 29  1  0
 26 27  1  0
 26 28  1  0
 26 36  1  0
 29 30  1  0
 29 31  1  0
 29 32  1  0
 32 33  1  0
 32 34  1  0
 32 35  1  0
 36 37  1  0
 36 38  1  0
 36 39  1  0
M  CHG  1   1   1
M  RAD  1   1   2
M  END
$$$$

     RDKit          3D

 39 38  0  0  0  0  0  0  0  0999 V2000
    1.1056    0.3943   -2.1347 S   0  0  0  0  0  2  0  0  0  0  0  0
    2.6413    0.2752   -3.5863 Si  0  0  0  0  0  4  0  0  0  0  0  0
    3.6174    1.3713   -3.4889 H   0  0  0  0  0  0  0  0  0  0  0  0
    3.4106   -0.9753   -3.3199 H   0  0  0  0  0  0  0  0  0  0  0  0
    0.0514    2.2122   -2.1234 Si  0  0  0  0  0  4  0  0  0  0  0  0
   -1.4063    1.9180   -2.2327 H   0  0  0  0  0  0  0  0  0  0  0  0
    0.2139    2.8551   -0.7922 H   0  0  0  0  0  0  0  0  0  0  0  0
    1.8936    0.1784   -5.6590 Si  0  0  0  0  0  4  0  0  0  0  0  0
    2.8423   -0.6398   -6.4673 H   0  0  0  0  0  0  0  0  0  0  0  0
    1.8049    1.4767   -6.3155 H   0  0  0  0  0  0  0  0  0  0  0  0
    0.7166    3.6531   -3.6592 Si  0  0  0  0  0  4  0  0  0  0  0  0
    1.3181    4.8700   -3.0423 H   0  0  0  0  0  0  0  0  0  0  0  0
    1.7461    3.1064   -4.5544 H   0  0  0  0  0  0  0  0  0  0  0  0
   -1.0904    4.3212   -4.8188 Si  0  0  0  0  0  4  0  0  0  0  0  0
   -2.2299    3.4208   -4.5625 H   0  0  0  0  0  0  0  0  0  0  0  0
   -0.8374    4.3466   -6.2466 H   0  0  0  0  0  0  0  0  0  0  0  0
   -0.0968   -0.8099   -5.8072 Si  0  0  0  0  0  4  0  0  0  0  0  0
   -1.1508   -0.0537   -5.1507 H   0  0  0  0  0  0  0  0  0  0  0  0
   -0.0258   -2.1773   -5.2573 H   0  0  0  0  0  0  0  0  0  0  0  0
   -0.6250   -0.9718   -7.9806 Si  0  0  0  0  0  4  0  0  0  0  0  0
    0.5166   -0.5842   -8.8346 H   0  0  0  0  0  0  0  0  0  0  0  0
   -0.9367   -2.3778   -8.3361 H   0  0  0  0  0  0  0  0  0  0  0  0
   -1.7236    6.3584   -4.0892 Si  0  0  0  0  0  4  0  0  0  0  0  0
   -2.3453    6.2135   -2.7680 H   0  0  0  0  0  0  0  0  0  0  0  0
   -2.6279    6.9993   -5.0219 H   0  0  0  0  0  0  0  0  0  0  0  0
   -2.3205    0.3849   -8.4952 Si  0  0  0  0  0  4  0  0  0  0  0  0
   -3.3809   -0.4280   -9.0888 H   0  0  0  0  0  0  0  0  0  0  0  0
   -2.8476    1.0199   -7.2893 H   0  0  0  0  0  0  0  0  0  0  0  0
    0.1666    7.5537   -3.8244 Si  0  0  0  0  0  4  0  0  0  0  0  0
    0.6695    7.3345   -2.4712 H   0  0  0  0  0  0  0  0  0  0  0  0
   -0.0736    8.9678   -4.1091 H   0  0  0  0  0  0  0  0  0  0  0  0
    1.6976    6.7542   -5.2514 Si  0  0  0  0  0  4  0  0  0  0  0  0
    2.9016    6.2903   -4.5380 H   0  0  0  0  0  0  0  0  0  0  0  0
    1.1469    5.6134   -6.0305 H   0  0  0  0  0  0  0  0  0  0  0  0
    2.1040    7.7926   -6.1910 H   0  0  0  0  0  0  0  0  0  0  0  0
   -1.7011    1.9301   -9.9872 Si  0  0  0  0  0  4  0  0  0  0  0  0
   -2.5567    1.8932  -11.1678 H   0  0  0  0  0  0  0  0  0  0  0  0
   -1.7588    3.2620   -9.3819 H   0  0  0  0  0  0  0  0  0  0  0  0
   -0.3063    1.6828  -10.3920 H   0  0  0  0  0  0  0  0  0  0  0  0
  1  2  1  0
  1  5  1  0
  2  3  1  0
  2  4  1  0
  2  8  1  0
  5  6  1  0
  5  7  1  0
  5 11  1  0
  8  9  1  0
  8 10  1  0
  8 17  1  0
 11 12  1  0
 11 13  1  0
 11 14  1  0
 14 15  1  0
 14 16  1  0
 14 23  1  0
 17 18  1  0
 17 19  1  0
 17 20  1  0
 20 21  1  0
 20 22  1  0
 20 26  1  0
 23 24  1  0
 23 25  1  0
 23 29  1  0
 26 27  1  0
 26 28  1  0
 26 36  1  0
 29 30  1  0
 29 31  1  0
 29 32  1  0
 32 33  1  0
 32 34  1  0
 32 35  1  0
 36 37  1  0
 36 38  1  0
 36 39  1  0
M  CHG  1   1   1
M  RAD  1   1   2
M  END
$$$$
