
     RDKit          3D

 39 38  0  0  0  0  0  0  0  0999 V2000
    0.1191   -0.1000    3.1418 S   0  0  0  0  0  2  0  0  0  0  0  0
   -0.3659    1.3870    4.6025 Si  0  0  0  0  0  4  0  0  0  0  0  0
   -0.7347    2.6217    3.8557 H   0  0  0  0  0  0  0  0  0  0  0  0
    0.7923    1.7375    5.4313 H   0  0  0  0  0  0  0  0  0  0  0  0
   -0.3572   -2.0710    3.8178 Si  0  0  0  0  0  4  0  0  0  0  0  0
   -1.5393   -2.0091    4.6709 H   0  0  0  0  0  0  0  0  0  0  0  0
   -0.6763   -2.9151    2.6659 H   0  0  0  0  0  0  0  0  0  0  0  0
   -2.0976    0.7147    5.8527 Si  0  0  0  0  0  4  0  0  0  0  0  0
   -2.7520   -0.4720    5.2471 H   0  0  0  0  0  0  0  0  0  0  0  0
   -3.1114    1.7822    5.8549 H   0  0  0  0  0  0  0  0  0  0  0  0
    1.3151   -2.9372    5.0372 Si  0  0  0  0  0  4  0  0  0  0  0  0
    1.7542   -4.1784    4.3791 H   0  0  0  0  0  0  0  0  0  0  0  0
    0.8614   -3.2759    6.3975 H   0  0  0  0  0  0  0  0  0  0  0  0
    2.9600   -1.4317    5.0977 Si  0  0  0  0  0  4  0  0  0  0  0  0
    3.7385   -1.5737    3.8647 H   0  0  0  0  0  0  0  0  0  0  0  0
    2.3297   -0.0899    5.1313 H   0  0  0  0  0  0  0  0  0  0  0  0
   -1.4635    0.2497    7.9349 Si  0  0  0  0  0  4  0  0  0  0  0  0
   -0.0421   -0.1435    7.9646 H   0  0  0  0  0  0  0  0  0  0  0  0
   -2.2631   -0.9054    8.3963 H   0  0  0  0  0  0  0  0  0  0  0  0
   -1.8658    1.9462    9.3211 Si  0  0  0  0  0  4  0  0  0  0  0  0
   -0.6703    2.8013    9.4879 H   0  0  0  0  0  0  0  0  0  0  0  0
   -2.2404    1.4043   10.6353 H   0  0  0  0  0  0  0  0  0  0  0  0
    4.2131   -1.6385    6.9144 Si  0  0  0  0  0  4  0  0  0  0  0  0
    5.5843   -1.1998    6.5785 H   0  0  0  0  0  0  0  0  0  0  0  0
    4.2830   -3.0212    7.3893 H   0  0  0  0  0  0  0  0  0  0  0  0
   -3.5929    3.1624    8.5898 Si  0  0  0  0  0  4  0  0  0  0  0  0
   -3.5952    3.2950    7.1351 H   0  0  0  0  0  0  0  0  0  0  0  0
   -3.5310    4.5119    9.1587 H   0  0  0  0  0  0  0  0  0  0  0  0
    3.4638   -0.3755    8.5929 Si  0  0  0  0  0  4  0  0  0  0  0  0
    4.3772   -0.5465    9.7251 H   0  0  0  0  0  0  0  0  0  0  0  0
    2.1474   -0.8699    8.9899 H   0  0  0  0  0  0  0  0  0  0  0  0
    3.3086    1.7601    8.0234 Si  0  0  0  0  0  4  0  0  0  0  0  0
    2.0564    2.3603    8.5220 H   0  0  0  0  0  0  0  0  0  0  0  0
    4.4325    2.4990    8.6308 H   0  0  0  0  0  0  0  0  0  0  0  0
    3.3690    1.9581    6.5749 H   0  0  0  0  0  0  0  0  0  0  0  0
   -5.5084    2.2139    9.2179 Si  0  0  0  0  0  4  0  0  0  0  0  0
   -5.4429    0.7704    8.8978 H   0  0  0  0  0  0  0  0  0  0  0  0
   -5.7318    2.3318   10.6676 H   0  0  0  0  0  0  0  0  0  0  0  0
   -6.5971    2.8411    8.4544 H   0  0  0  0  0  0  0  0  0  0  0  0
  1  2  1  0
  1  5  1  0
  2  3  1  0
  2  4  1  0
  2  8  1  0
  5  6  1  0
  5  7  1  0
  5 11  1  0
  8  9  1  0
  8 10  1  0
  8 17  1  0
 11 12  1  0
 11 13  1  0
 11 14  1  0
 14 15  1  0
 14 16  1  0
 14 23  1  0
 17 18  1  0
 17 19  1  0
 17 20  1  0
 20 21  1  0
 20 22  1  0
 20 26  1  0
 23 24  1  0
 23 25  1  0
 23 29  1  0
 26 27  1  0
 26 28  1  0
 26 36  1  0
 29 30  1  0
 29 31  1  0
 29 32  1  0
 32 33  1  0
 32 34  1  0
 32 35  1  0
 36 37  1  0
 36 38  1  0
 36 39  1  0
M  CHG  1   1   1
M  RAD  1   1   2
M  END
$$$$

     RDKit          3D

 39 38  0  0  0  0  0  0  0  0999 V2000
    0.1191   -0.1000    3.1418 S   0  0  0  0  0  2  0  0  0  0  0  0
    2.0308   -0.7044    3.7957 Si  0  0  0  0  0  4  0  0  0  0  0  0
    2.2105   -2.1430    3.4470 H   0  0  0  0  0  0  0  0  0  0  0  0
    3.1256    0.0111    3.1166 H   0  0  0  0  0  0  0  0  0  0  0  0
   -0.6444    1.5968    4.1579 Si  0  0  0  0  0  4  0  0  0  0  0  0
   -1.2281    2.5204    3.1506 H   0  0  0  0  0  0  0  0  0  0  0  0
    0.3571    2.3437    4.8977 H   0  0  0  0  0  0  0  0  0  0  0  0
    2.3260   -0.5079    5.9795 Si  0  0  0  0  0  4  0  0  0  0  0  0
    1.1611   -0.8880    6.7624 H   0  0  0  0  0  0  0  0  0  0  0  0
    3.4235   -1.4402    6.3680 H   0  0  0  0  0  0  0  0  0  0  0  0
   -2.3420    0.9340    5.4631 Si  0  0  0  0  0  4  0  0  0  0  0  0
   -2.2540   -0.5286    5.7091 H   0  0  0  0  0  0  0  0  0  0  0  0
   -3.6415    1.1477    4.7909 H   0  0  0  0  0  0  0  0  0  0  0  0
   -2.3644    2.0465    7.3811 Si  0  0  0  0  0  4  0  0  0  0  0  0
   -1.8192    1.1436    8.4273 H   0  0  0  0  0  0  0  0  0  0  0  0
   -3.7272    2.4026    7.7789 H   0  0  0  0  0  0  0  0  0  0  0  0
    3.0266    1.5476    6.5097 Si  0  0  0  0  0  4  0  0  0  0  0  0
    1.8495    2.3627    6.7814 H   0  0  0  0  0  0  0  0  0  0  0  0
    3.8700    1.5436    7.7029 H   0  0  0  0  0  0  0  0  0  0  0  0
    4.1081    2.4871    4.7846 Si  0  0  0  0  0  4  0  0  0  0  0  0
    5.1864    1.6266    4.2933 H   0  0  0  0  0  0  0  0  0  0  0  0
    3.1518    2.8306    3.7211 H   0  0  0  0  0  0  0  0  0  0  0  0
   -1.1272    3.9063    7.2604 Si  0  0  0  0  0  4  0  0  0  0  0  0
   -0.3452    3.9391    6.0163 H   0  0  0  0  0  0  0  0  0  0  0  0
   -2.0100    5.0915    7.2324 H   0  0  0  0  0  0  0  0  0  0  0  0
    5.0336    4.3857    5.5399 Si  0  0  0  0  0  4  0  0  0  0  0  0
    5.4168    5.2224    4.4028 H   0  0  0  0  0  0  0  0  0  0  0  0
    4.0544    5.1043    6.3844 H   0  0  0  0  0  0  0  0  0  0  0  0
    0.1513    4.0234    9.0723 Si  0  0  0  0  0  4  0  0  0  0  0  0
   -0.3483    4.9930   10.0372 H   0  0  0  0  0  0  0  0  0  0  0  0
    1.5414    4.3245    8.6439 H   0  0  0  0  0  0  0  0  0  0  0  0
    0.2182    2.0069   10.0658 Si  0  0  0  0  0  4  0  0  0  0  0  0
    1.1782    1.9837   11.1593 H   0  0  0  0  0  0  0  0  0  0  0  0
   -1.1590    1.6896   10.5169 H   0  0  0  0  0  0  0  0  0  0  0  0
    0.5658    0.9993    9.0586 H   0  0  0  0  0  0  0  0  0  0  0  0
    6.8070    3.8165    6.7809 Si  0  0  0  0  0  4  0  0  0  0  0  0
    6.3267    2.8938    7.8217 H   0  0  0  0  0  0  0  0  0  0  0  0
    7.7197    3.0658    5.9222 H   0  0  0  0  0  0  0  0  0  0  0  0
    7.4090    5.0071    7.3703 H   0  0  0  0  0  0  0  0  0  0  0  0
  1  2  1  0
  1  5  1  0
  2  3  1  0
  2  4  1  0
  2  8  1  0
  5  6  1  0
  5  7  1  0
  5 11  1  0
  8  9  1  0
  8 10  1  0
  8 17  1  0
 11 12  1  0
 11 13  1  0
 11 14  1  0
 14 15  1  0
 14 16  1  0
 14 23  1  0
 17 18  1  0
 17 19  1  0
 17 20  1  0
 20 21  1  0
 20 22  1  0
 20 26  1  0
 23 24  1  0
 23 25  1  0
 23 29  1  0
 26 27  1  0
 26 28  1  0
 26 36  1  0
 29 30  1  0
 29 31  1  0
 29 32  1  0
 32 33  1  0
 32 34  1  0
 32 35  1  0
 36 37  1  0
 36 38  1  0
 36 39  1  0
M  CHG  1   1   1
M  RAD  1   1   2
M  END
$$$$

     RDKit          3D

 39 38  0  0  0  0  0  0  0  0999 V2000
    0.1191   -0.1000    3.1418 S   0  0  0  0  0  2  0  0  0  0  0  0
   -0.0989    1.4548    4.5962 Si  0  0  0  0  0  4  0  0  0  0  0  0
   -0.2435    2.7322    3.8442 H   0  0  0  0  0  0  0  0  0  0  0  0
    1.1016    1.5992    5.4263 H   0  0  0  0  0  0  0  0  0  0  0  0
   -0.6977   -1.9538    3.8237 Si  0  0  0  0  0  4  0  0  0  0  0  0
   -1.8518   -1.6815    4.6739 H   0  0  0  0  0  0  0  0  0  0  0  0
   -1.1586   -2.7330    2.6741 H   0  0  0  0  0  0  0  0  0  0  0  0
   -1.9238    1.1025    5.8449 Si  0  0  0  0  0  4  0  0  0  0  0  0
   -2.7759    0.0472    5.2421 H   0  0  0  0  0  0  0  0  0  0  0  0
   -2.7339    2.3318    5.8411 H   0  0  0  0  0  0  0  0  0  0  0  0
    0.7941   -3.0961    5.0499 Si  0  0  0  0  0  4  0  0  0  0  0  0
    1.0090   -4.3977    4.3971 H   0  0  0  0  0  0  0  0  0  0  0  0
    0.2858   -3.3444    6.4103 H   0  0  0  0  0  0  0  0  0  0  0  0
    2.6782   -1.9034    5.1086 Si  0  0  0  0  0  4  0  0  0  0  0  0
    3.4215   -2.1849    3.8779 H   0  0  0  0  0  0  0  0  0  0  0  0
    2.2939   -0.4714    5.1361 H   0  0  0  0  0  0  0  0  0  0  0  0
   -1.3846    0.5413    7.9302 Si  0  0  0  0  0  4  0  0  0  0  0  0
   -0.0547   -0.0958    7.9643 H   0  0  0  0  0  0  0  0  0  0  0  0
   -2.3758   -0.4533    8.3939 H   0  0  0  0  0  0  0  0  0  0  0  0
   -1.4843    2.2874    9.3095 Si  0  0  0  0  0  4  0  0  0  0  0  0
   -0.1572    2.9195    9.4758 H   0  0  0  0  0  0  0  0  0  0  0  0
   -1.9504    1.8250   10.6248 H   0  0  0  0  0  0  0  0  0  0  0  0
    3.8726   -2.3204    6.9288 Si  0  0  0  0  0  4  0  0  0  0  0  0
    5.3001   -2.1312    6.5943 H   0  0  0  0  0  0  0  0  0  0  0  0
    3.6973   -3.6920    7.4087 H   0  0  0  0  0  0  0  0  0  0  0  0
   -2.9692    3.7858    8.5701 Si  0  0  0  0  0  4  0  0  0  0  0  0
   -2.9459    3.9111    7.1149 H   0  0  0  0  0  0  0  0  0  0  0  0
   -2.6716    5.1055    9.1344 H   0  0  0  0  0  0  0  0  0  0  0  0
    3.3547   -0.9388    8.6012 Si  0  0  0  0  0  4  0  0  0  0  0  0
    4.2220   -1.2636    9.7360 H   0  0  0  0  0  0  0  0  0  0  0  0
    1.9712   -1.1922    8.9971 H   0  0  0  0  0  0  0  0  0  0  0  0
    3.5787    1.1886    8.0238 Si  0  0  0  0  0  4  0  0  0  0  0  0
    2.4509    2.0017    8.5176 H   0  0  0  0  0  0  0  0  0  0  0  0
    4.8141    1.7205    8.6311 H   0  0  0  0  0  0  0  0  0  0  0  0
    3.6752    1.3673    6.5748 H   0  0  0  0  0  0  0  0  0  0  0  0
   -5.0227    3.1917    9.1973 Si  0  0  0  0  0  4  0  0  0  0  0  0
   -5.2117    1.7579    8.8825 H   0  0  0  0  0  0  0  0  0  0  0  0
   -5.2241    3.3526   10.6461 H   0  0  0  0  0  0  0  0  0  0  0  0
   -5.9828    3.9977    8.4292 H   0  0  0  0  0  0  0  0  0  0  0  0
  1  2  1  0
  1  5  1  0
  2  3  1  0
  2  4  1  0
  2  8  1  0
  5  6  1  0
  5  7  1  0
  5 11  1  0
  8  9  1  0
  8 10  1  0
  8 17  1  0
 11 12  1  0
 11 13  1  0
 11 14  1  0
 14 15  1  0
 14 16  1  0
 14 23  1  0
 17 18  1  0
 17 19  1  0
 17 20  1  0
 20 21  1  0
 20 22  1  0
 20 26  1  0
 23 24  1  0
 23 25  1  0
 23 29  1  0
 26 27  1  0
 26 28  1  0
 26 36  1  0
 29 30  1  0
 29 31  1  0
 29 32  1  0
 32 33  1  0
 32 34  1  0
 32 35  1  0
 36 37  1  0
 36 38  1  0
 36 39  1  0
M  CHG  1   1   1
M  RAD  1   1   2
M  END
$$$$

     RDKit          3D

 39 38  0  0  0  0  0  0  0  0999 V2000
    0.1191   -0.1000    3.1418 S   0  0  0  0  0  2  0  0  0  0  0  0
    1.8936   -1.0289    3.8020 Si  0  0  0  0  0  4  0  0  0  0  0  0
    1.8178   -2.4780    3.4588 H   0  0  0  0  0  0  0  0  0  0  0  0
    3.0983   -0.5198    3.1229 H   0  0  0  0  0  0  0  0  0  0  0  0
   -0.3354    1.7086    4.1502 Si  0  0  0  0  0  4  0  0  0  0  0  0
   -0.7459    2.7166    3.1384 H   0  0  0  0  0  0  0  0  0  0  0  0
    0.7807    2.2704    4.8896 H   0  0  0  0  0  0  0  0  0  0  0  0
    2.2154   -0.8790    5.9858 Si  0  0  0  0  0  4  0  0  0  0  0  0
    1.0006   -1.0451    6.7674 H   0  0  0  0  0  0  0  0  0  0  0  0
    3.1311   -1.9884    6.3800 H   0  0  0  0  0  0  0  0  0  0  0  0
   -2.1252    1.3599    5.4540 Si  0  0  0  0  0  4  0  0  0  0  0  0
   -2.2964   -0.0943    5.7054 H   0  0  0  0  0  0  0  0  0  0  0  0
   -3.3657    1.7964    4.7782 H   0  0  0  0  0  0  0  0  0  0  0  0
   -1.9544    2.4664    7.3680 Si  0  0  0  0  0  4  0  0  0  0  0  0
   -1.5782    1.4857    8.4186 H   0  0  0  0  0  0  0  0  0  0  0  0
   -3.2339    3.0584    7.7616 H   0  0  0  0  0  0  0  0  0  0  0  0
    3.2660    1.0232    6.5102 Si  0  0  0  0  0  4  0  0  0  0  0  0
    2.2503    2.0337    6.7765 H   0  0  0  0  0  0  0  0  0  0  0  0
    4.0936    0.8754    7.7053 H   0  0  0  0  0  0  0  0  0  0  0  0
    4.4986    1.7510    4.7842 Si  0  0  0  0  0  4  0  0  0  0  0  0
    5.4094    0.7123    4.2983 H   0  0  0  0  0  0  0  0  0  0  0  0
    3.6194    2.2534    3.7174 H   0  0  0  0  0  0  0  0  0  0  0  0
   -0.4090    4.0789    7.2434 Si  0  0  0  0  0  4  0  0  0  0  0  0
    0.3685    3.9689    6.0010 H   0  0  0  0  0  0  0  0  0  0  0  0
   -1.0693    5.4009    7.2093 H   0  0  0  0  0  0  0  0  0  0  0  0
    5.7427    3.4600    5.5349 Si  0  0  0  0  0  4  0  0  0  0  0  0
    6.2689    4.2118    4.3956 H   0  0  0  0  0  0  0  0  0  0  0  0
    4.9039    4.3429    6.3747 H   0  0  0  0  0  0  0  0  0  0  0  0
    0.8673    3.9763    9.0578 Si  0  0  0  0  0  4  0  0  0  0  0  0
    0.5447    5.0223   10.0181 H   0  0  0  0  0  0  0  0  0  0  0  0
    2.2894    4.0264    8.6314 H   0  0  0  0  0  0  0  0  0  0  0  0
    0.5768    1.9833   10.0585 Si  0  0  0  0  0  4  0  0  0  0  0  0
    1.5160    1.7957   11.1542 H   0  0  0  0  0  0  0  0  0  0  0  0
   -0.8355    1.9151   10.5077 H   0  0  0  0  0  0  0  0  0  0  0  0
    0.7432    0.9263    9.0557 H   0  0  0  0  0  0  0  0  0  0  0  0
    7.3862    2.5924    6.7817 Si  0  0  0  0  0  4  0  0  0  0  0  0
    6.7495    1.7726    7.8247 H   0  0  0  0  0  0  0  0  0  0  0  0
    8.1539    1.6894    5.9277 H   0  0  0  0  0  0  0  0  0  0  0  0
    8.1875    3.6607    7.3683 H   0  0  0  0  0  0  0  0  0  0  0  0
  1  2  1  0
  1  5  1  0
  2  3  1  0
  2  4  1  0
  2  8  1  0
  5  6  1  0
  5  7  1  0
  5 11  1  0
  8  9  1  0
  8 10  1  0
  8 17  1  0
 11 12  1  0
 11 13  1  0
 11 14  1  0
 14 15  1  0
 14 16  1  0
 14 23  1  0
 17 18  1  0
 17 19  1  0
 17 20  1  0
 20 21  1  0
 20 22  1  0
 20 26  1  0
 23 24  1  0
 23 25  1  0
 23 29  1  0
 26 27  1  0
 26 28  1  0
 26 36  1  0
 29 30  1  0
 29 31  1  0
 29 32  1  0
 32 33  1  0
 32 34  1  0
 32 35  1  0
 36 37  1  0
 36 38  1  0
 36 39  1  0
M  CHG  1   1   1
M  RAD  1   1   2
M  END
$$$$

     RDKit          3D

 39 38  0  0  0  0  0  0  0  0999 V2000
    0.1191   -0.1000    3.1418 S   0  0  0  0  0  2  0  0  0  0  0  0
   -1.3002   -1.4775    3.8738 Si  0  0  0  0  0  4  0  0  0  0  0  0
   -2.6610   -0.9696    3.5368 H   0  0  0  0  0  0  0  0  0  0  0  0
   -1.1993   -2.8028    3.2374 H   0  0  0  0  0  0  0  0  0  0  0  0
    1.9969   -0.1924    4.1215 Si  0  0  0  0  0  4  0  0  0  0  0  0
    3.0646   -0.1478    3.0888 H   0  0  0  0  0  0  0  0  0  0  0  0
    2.1999   -1.4018    4.8989 H   0  0  0  0  0  0  0  0  0  0  0  0
   -1.2190   -1.7557    6.0672 Si  0  0  0  0  0  4  0  0  0  0  0  0
   -0.9887   -0.5232    6.8036 H   0  0  0  0  0  0  0  0  0  0  0  0
   -2.5496   -2.2701    6.5022 H   0  0  0  0  0  0  0  0  0  0  0  0
    2.2398    1.6607    5.3592 Si  0  0  0  0  0  4  0  0  0  0  0  0
    0.9138    2.2810    5.6127 H   0  0  0  0  0  0  0  0  0  0  0  0
    3.0258    2.6821    4.6346 H   0  0  0  0  0  0  0  0  0  0  0  0
    3.2727    1.2215    7.2715 Si  0  0  0  0  0  4  0  0  0  0  0  0
    2.2422    1.2024    8.3414 H   0  0  0  0  0  0  0  0  0  0  0  0
    4.2372    2.2682    7.6131 H   0  0  0  0  0  0  0  0  0  0  0  0
    0.2753   -3.3239    6.6193 Si  0  0  0  0  0  4  0  0  0  0  0  0
    1.5543   -2.6616    6.8410 H   0  0  0  0  0  0  0  0  0  0  0  0
   -0.0997   -4.0245    7.8455 H   0  0  0  0  0  0  0  0  0  0  0  0
    0.5574   -4.7788    4.9365 Si  0  0  0  0  0  4  0  0  0  0  0  0
   -0.7198   -5.3403    4.4914 H   0  0  0  0  0  0  0  0  0  0  0  0
    1.2879   -4.1344    3.8343 H   0  0  0  0  0  0  0  0  0  0  0  0
    4.3277   -0.7496    7.1954 Si  0  0  0  0  0  4  0  0  0  0  0  0
    3.9616   -1.4968    5.9837 H   0  0  0  0  0  0  0  0  0  0  0  0
    5.7880   -0.5314    7.1285 H   0  0  0  0  0  0  0  0  0  0  0  0
    1.8122   -6.4636    5.7230 Si  0  0  0  0  0  4  0  0  0  0  0  0
    2.3453   -7.2346    4.5998 H   0  0  0  0  0  0  0  0  0  0  0  0
    2.9253   -5.9106    6.5254 H   0  0  0  0  0  0  0  0  0  0  0  0
    3.8679   -1.8696    9.0570 Si  0  0  0  0  0  4  0  0  0  0  0  0
    4.9789   -1.8535    9.9982 H   0  0  0  0  0  0  0  0  0  0  0  0
    3.4696   -3.2513    8.6841 H   0  0  0  0  0  0  0  0  0  0  0  0
    2.0793   -0.9441   10.0581 Si  0  0  0  0  0  4  0  0  0  0  0  0
    1.6303   -1.7418   11.1894 H   0  0  0  0  0  0  0  0  0  0  0  0
    2.4578    0.4346   10.4543 H   0  0  0  0  0  0  0  0  0  0  0  0
    1.0054   -0.8098    9.0687 H   0  0  0  0  0  0  0  0  0  0  0  0
    0.5018   -7.7157    7.0360 Si  0  0  0  0  0  4  0  0  0  0  0  0
   -0.0634   -6.8220    8.0592 H   0  0  0  0  0  0  0  0  0  0  0  0
   -0.6085   -8.1955    6.2169 H   0  0  0  0  0  0  0  0  0  0  0  0
    1.2810   -8.7874    7.6457 H   0  0  0  0  0  0  0  0  0  0  0  0
  1  2  1  0
  1  5  1  0
  2  3  1  0
  2  4  1  0
  2  8  1  0
  5  6  1  0
  5  7  1  0
  5 11  1  0
  8  9  1  0
  8 10  1  0
  8 17  1  0
 11 12  1  0
 11 13  1  0
 11 14  1  0
 14 15  1  0
 14 16  1  0
 14 23  1  0
 17 18  1  0
 17 19  1  0
 17 20  1  0
 20 21  1  0
 20 22  1  0
 20 26  1  0
 23 24  1  0
 23 25  1  0
 23 29  1  0
 26 27  1  0
 26 28  1  0
 26 36  1  0
 29 30  1  0
 29 31  1  0
 29 32  1  0
 32 33  1  0
 32 34  1  0
 32 35  1  0
 36 37  1  0
 36 38  1  0
 36 39  1  0
M  CHG  1   1   1
M  RAD  1   1   2
M  END
$$$$

     RDKit          3D

 39 38  0  0  0  0  0  0  0  0999 V2000
    0.1191   -0.1000    3.1418 S   0  0  0  0  0  2  0  0  0  0  0  0
   -0.6262   -1.4365    4.6380 Si  0  0  0  0  0  4  0  0  0  0  0  0
   -1.3509   -2.5238    3.9234 H   0  0  0  0  0  0  0  0  0  0  0  0
   -1.6121   -0.7875    5.5087 H   0  0  0  0  0  0  0  0  0  0  0  0
    1.9493    0.8288    3.7386 Si  0  0  0  0  0  4  0  0  0  0  0  0
    2.7109   -0.1049    4.5614 H   0  0  0  0  0  0  0  0  0  0  0  0
    2.7468    1.1370    2.5509 H   0  0  0  0  0  0  0  0  0  0  0  0
    1.0664   -2.3056    5.8184 Si  0  0  0  0  0  4  0  0  0  0  0  0
    2.3652   -2.0264    5.1562 H   0  0  0  0  0  0  0  0  0  0  0  0
    0.9214   -3.7706    5.8293 H   0  0  0  0  0  0  0  0  0  0  0  0
    1.5644    2.6627    4.9724 Si  0  0  0  0  0  4  0  0  0  0  0  0
    2.1880    3.8051    4.2850 H   0  0  0  0  0  0  0  0  0  0  0  0
    2.1750    2.5430    6.3080 H   0  0  0  0  0  0  0  0  0  0  0  0
   -0.6455    2.9239    5.1270 Si  0  0  0  0  0  4  0  0  0  0  0  0
   -1.0993    3.6038    3.9111 H   0  0  0  0  0  0  0  0  0  0  0  0
   -1.2471    1.5700    5.1887 H   0  0  0  0  0  0  0  0  0  0  0  0
    1.0930   -1.5182    7.9001 Si  0  0  0  0  0  4  0  0  0  0  0  0
    0.4634   -0.1853    7.9544 H   0  0  0  0  0  0  0  0  0  0  0  0
    2.5083   -1.3677    8.3011 H   0  0  0  0  0  0  0  0  0  0  0  0
    0.1321   -2.9291    9.3311 Si  0  0  0  0  0  4  0  0  0  0  0  0
   -1.2880   -2.5828    9.5581 H   0  0  0  0  0  0  0  0  0  0  0  0
    0.8426   -2.8562   10.6159 H   0  0  0  0  0  0  0  0  0  0  0  0
   -1.2297    4.0106    6.9685 Si  0  0  0  0  0  4  0  0  0  0  0  0
   -2.4712    4.7612    6.6841 H   0  0  0  0  0  0  0  0  0  0  0  0
   -0.2096    4.9679    7.3986 H   0  0  0  0  0  0  0  0  0  0  0  0
    0.3090   -5.0324    8.5951 Si  0  0  0  0  0  4  0  0  0  0  0  0
    0.1481   -5.1233    7.1461 H   0  0  0  0  0  0  0  0  0  0  0  0
   -0.7275   -5.8665    9.2103 H   0  0  0  0  0  0  0  0  0  0  0  0
   -1.6237    2.6210    8.6678 Si  0  0  0  0  0  4  0  0  0  0  0  0
   -2.0425    3.4260    9.8176 H   0  0  0  0  0  0  0  0  0  0  0  0
   -0.3733    1.9483    9.0129 H   0  0  0  0  0  0  0  0  0  0  0  0
   -3.1616    1.1067    8.1662 Si  0  0  0  0  0  4  0  0  0  0  0  0
   -2.7764   -0.2324    8.6511 H   0  0  0  0  0  0  0  0  0  0  0  0
   -4.4282    1.4756    8.8277 H   0  0  0  0  0  0  0  0  0  0  0  0
   -3.4127    1.0206    6.7272 H   0  0  0  0  0  0  0  0  0  0  0  0
    2.3039   -5.8612    9.1398 Si  0  0  0  0  0  4  0  0  0  0  0  0
    3.3390   -4.8688    8.7735 H   0  0  0  0  0  0  0  0  0  0  0  0
    2.4227   -6.1049   10.5862 H   0  0  0  0  0  0  0  0  0  0  0  0
    2.5080   -7.0964    8.3691 H   0  0  0  0  0  0  0  0  0  0  0  0
  1  2  1  0
  1  5  1  0
  2  3  1  0
  2  4  1  0
  2  8  1  0
  5  6  1  0
  5  7  1  0
  5 11  1  0
  8  9  1  0
  8 10  1  0
  8 17  1  0
 11 12  1  0
 11 13  1  0
 11 14  1  0
 14 15  1  0
 14 16  1  0
 14 23  1  0
 17 18  1  0
 17 19  1  0
 17 20  1  0
 20 21  1  0
 20 22  1  0
 20 26  1  0
 23 24  1  0
 23 25  1  0
 23 29  1  0
 26 27  1  0
 26 28  1  0
 26 36  1  0
 29 30  1  0
 29 31  1  0
 29 32  1  0
 32 33  1  0
 32 34  1  0
 32 35  1  0
 36 37  1  0
 36 38  1  0
 36 39  1  0
M  CHG  1   1   1
M  RAD  1   1   2
M  END
$$$$

     RDKit          3D

 39 38  0  0  0  0  0  0  0  0999 V2000
    0.1191   -0.1000    3.1418 S   0  0  0  0  0  2  0  0  0  0  0  0
   -1.3483   -1.4260    3.8743 Si  0  0  0  0  0  4  0  0  0  0  0  0
   -2.6901   -0.8705    3.5364 H   0  0  0  0  0  0  0  0  0  0  0  0
   -1.2940   -2.7545    3.2389 H   0  0  0  0  0  0  0  0  0  0  0  0
    1.9921   -0.2579    4.1223 Si  0  0  0  0  0  4  0  0  0  0  0  0
    3.0611   -0.2519    3.0900 H   0  0  0  0  0  0  0  0  0  0  0  0
    2.1520   -1.4731    4.9006 H   0  0  0  0  0  0  0  0  0  0  0  0
   -1.2777   -1.7052    6.0679 Si  0  0  0  0  0  4  0  0  0  0  0  0
   -1.0043   -0.4811    6.8035 H   0  0  0  0  0  0  0  0  0  0  0  0
   -2.6259   -2.1720    6.5028 H   0  0  0  0  0  0  0  0  0  0  0  0
    2.2999    1.5863    5.3587 Si  0  0  0  0  0  4  0  0  0  0  0  0
    0.9966    2.2533    5.6113 H   0  0  0  0  0  0  0  0  0  0  0  0
    3.1217    2.5788    4.6337 H   0  0  0  0  0  0  0  0  0  0  0  0
    3.3159    1.1123    7.2718 Si  0  0  0  0  0  4  0  0  0  0  0  0
    2.2850    1.1305    8.3413 H   0  0  0  0  0  0  0  0  0  0  0  0
    4.3166    2.1246    7.6130 H   0  0  0  0  0  0  0  0  0  0  0  0
    0.1600   -3.3248    6.6217 Si  0  0  0  0  0  4  0  0  0  0  0  0
    1.4615   -2.7079    6.8435 H   0  0  0  0  0  0  0  0  0  0  0  0
   -0.2400   -4.0108    7.8483 H   0  0  0  0  0  0  0  0  0  0  0  0
    0.3912   -4.7901    4.9401 Si  0  0  0  0  0  4  0  0  0  0  0  0
   -0.9049   -5.3063    4.4950 H   0  0  0  0  0  0  0  0  0  0  0  0
    1.1444   -4.1726    3.8377 H   0  0  0  0  0  0  0  0  0  0  0  0
    4.3006   -0.8949    7.1975 Si  0  0  0  0  0  4  0  0  0  0  0  0
    3.9089   -1.6296    5.9863 H   0  0  0  0  0  0  0  0  0  0  0  0
    5.7678   -0.7284    7.1310 H   0  0  0  0  0  0  0  0  0  0  0  0
    1.5854   -6.5175    5.7283 Si  0  0  0  0  0  4  0  0  0  0  0  0
    2.0913   -7.3077    4.6059 H   0  0  0  0  0  0  0  0  0  0  0  0
    2.7170   -6.0036    6.5308 H   0  0  0  0  0  0  0  0  0  0  0  0
    3.8009   -1.9965    9.0598 Si  0  0  0  0  0  4  0  0  0  0  0  0
    4.9114   -2.0190   10.0014 H   0  0  0  0  0  0  0  0  0  0  0  0
    3.3542   -3.3635    8.6877 H   0  0  0  0  0  0  0  0  0  0  0  0
    2.0457   -1.0076   10.0595 Si  0  0  0  0  0  4  0  0  0  0  0  0
    1.5684   -1.7881   11.1912 H   0  0  0  0  0  0  0  0  0  0  0  0
    2.4725    0.3571   10.4548 H   0  0  0  0  0  0  0  0  0  0  0  0
    0.9776   -0.8362    9.0695 H   0  0  0  0  0  0  0  0  0  0  0  0
    0.2311   -7.7216    7.0417 Si  0  0  0  0  0  4  0  0  0  0  0  0
   -0.3025   -6.8076    8.0641 H   0  0  0  0  0  0  0  0  0  0  0  0
   -0.8952   -8.1624    6.2225 H   0  0  0  0  0  0  0  0  0  0  0  0
    0.9717   -8.8196    7.6526 H   0  0  0  0  0  0  0  0  0  0  0  0
  1  2  1  0
  1  5  1  0
  2  3  1  0
  2  4  1  0
  2  8  1  0
  5  6  1  0
  5  7  1  0
  5 11  1  0
  8  9  1  0
  8 10  1  0
  8 17  1  0
 11 12  1  0
 11 13  1  0
 11 14  1  0
 14 15  1  0
 14 16  1  0
 14 23  1  0
 17 18  1  0
 17 19  1  0
 17 20  1  0
 20 21  1  0
 20 22  1  0
 20 26  1  0
 23 24  1  0
 23 25  1  0
 23 29  1  0
 26 27  1  0
 26 28  1  0
 26 36  1  0
 29 30  1  0
 29 31  1  0
 29 32  1  0
 32 33  1  0
 32 34  1  0
 32 35  1  0
 36 37  1  0
 36 38  1  0
 36 39  1  0
M  CHG  1   1   1
M  RAD  1   1   2
M  END
$$$$

     RDKit          3D

 39 38  0  0  0  0  0  0  0  0999 V2000
    0.1191   -0.1000    3.1418 S   0  0  0  0  0  2  0  0  0  0  0  0
   -0.5900   -1.4566    4.6375 Si  0  0  0  0  0  4  0  0  0  0  0  0
   -1.2857   -2.5624    3.9225 H   0  0  0  0  0  0  0  0  0  0  0  0
   -1.5925   -0.8346    5.5088 H   0  0  0  0  0  0  0  0  0  0  0  0
    1.9241    0.8767    3.7386 Si  0  0  0  0  0  4  0  0  0  0  0  0
    2.7105   -0.0369    4.5606 H   0  0  0  0  0  0  0  0  0  0  0  0
    2.7128    1.2067    2.5509 H   0  0  0  0  0  0  0  0  0  0  0  0
    1.1255   -2.2811    5.8169 Si  0  0  0  0  0  4  0  0  0  0  0  0
    2.4162   -1.9671    5.1545 H   0  0  0  0  0  0  0  0  0  0  0  0
    1.0194   -3.7495    5.8271 H   0  0  0  0  0  0  0  0  0  0  0  0
    1.4910    2.6991    4.9736 Si  0  0  0  0  0  4  0  0  0  0  0  0
    2.0839    3.8580    4.2866 H   0  0  0  0  0  0  0  0  0  0  0  0
    2.1049    2.5949    6.3089 H   0  0  0  0  0  0  0  0  0  0  0  0
   -0.7250    2.9014    5.1289 Si  0  0  0  0  0  4  0  0  0  0  0  0
   -1.1970    3.5697    3.9136 H   0  0  0  0  0  0  0  0  0  0  0  0
   -1.2904    1.5319    5.1901 H   0  0  0  0  0  0  0  0  0  0  0  0
    1.1317   -1.4944    7.8990 Si  0  0  0  0  0  4  0  0  0  0  0  0
    0.4669   -0.1788    7.9543 H   0  0  0  0  0  0  0  0  0  0  0  0
    2.5426   -1.3066    8.2997 H   0  0  0  0  0  0  0  0  0  0  0  0
    0.2091   -2.9312    9.3295 Si  0  0  0  0  0  4  0  0  0  0  0  0
   -1.2197   -2.6229    9.5571 H   0  0  0  0  0  0  0  0  0  0  0  0
    0.9178   -2.8402   10.6142 H   0  0  0  0  0  0  0  0  0  0  0  0
   -1.3374    3.9712    6.9712 Si  0  0  0  0  0  4  0  0  0  0  0  0
   -2.5985    4.6886    6.6876 H   0  0  0  0  0  0  0  0  0  0  0  0
   -0.3429    4.9551    7.4015 H   0  0  0  0  0  0  0  0  0  0  0  0
    0.4416   -5.0286    8.5923 Si  0  0  0  0  0  4  0  0  0  0  0  0
    0.2827   -5.1230    7.1433 H   0  0  0  0  0  0  0  0  0  0  0  0
   -0.5722   -5.8903    9.2073 H   0  0  0  0  0  0  0  0  0  0  0  0
   -1.6938    2.5706    8.6698 Si  0  0  0  0  0  4  0  0  0  0  0  0
   -2.1334    3.3636    9.8202 H   0  0  0  0  0  0  0  0  0  0  0  0
   -0.4259    1.9313    9.0141 H   0  0  0  0  0  0  0  0  0  0  0  0
   -3.1911    1.0164    8.1677 Si  0  0  0  0  0  4  0  0  0  0  0  0
   -2.7703   -0.3124    8.6518 H   0  0  0  0  0  0  0  0  0  0  0  0
   -4.4668    1.3510    8.8298 H   0  0  0  0  0  0  0  0  0  0  0  0
   -3.4402    0.9244    6.7288 H   0  0  0  0  0  0  0  0  0  0  0  0
    2.4580   -5.8045    9.1360 Si  0  0  0  0  0  4  0  0  0  0  0  0
    3.4662   -4.7846    8.7699 H   0  0  0  0  0  0  0  0  0  0  0  0
    2.5836   -6.0457   10.5822 H   0  0  0  0  0  0  0  0  0  0  0  0
    2.6946   -7.0334    8.3645 H   0  0  0  0  0  0  0  0  0  0  0  0
  1  2  1  0
  1  5  1  0
  2  3  1  0
  2  4  1  0
  2  8  1  0
  5  6  1  0
  5  7  1  0
  5 11  1  0
  8  9  1  0
  8 10  1  0
  8 17  1  0
 11 12  1  0
 11 13  1  0
 11 14  1  0
 14 15  1  0
 14 16  1  0
 14 23  1  0
 17 18  1  0
 17 19  1  0
 17 20  1  0
 20 21  1  0
 20 22  1  0
 20 26  1  0
 23 24  1  0
 23 25  1  0
 23 29  1  0
 26 27  1  0
 26 28  1  0
 26 36  1  0
 29 30  1  0
 29 31  1  0
 29 32  1  0
 32 33  1  0
 32 34  1  0
 32 35  1  0
 36 37  1  0
 36 38  1  0
 36 39  1  0
M  CHG  1   1   1
M  RAD  1   1   2
M  END
$$$$
