
     RDKit          3D

 39 38  0  0  0  0  0  0  0  0999 V2000
   -1.2799   -0.4521   -2.4429 S   0  0  0  0  0  2  0  0  0  0  0  0
    0.1217   -0.7042   -4.0373 Si  0  0  0  0  0  4  0  0  0  0  0  0
    0.0527    0.4682   -4.9141 H   0  0  0  0  0  0  0  0  0  0  0  0
    1.4851   -0.7278   -3.4621 H   0  0  0  0  0  0  0  0  0  0  0  0
   -3.0198    0.6327   -3.1178 Si  0  0  0  0  0  4  0  0  0  0  0  0
   -4.1590   -0.3176   -3.0216 H   0  0  0  0  0  0  0  0  0  0  0  0
   -3.3182    1.7683   -2.2639 H   0  0  0  0  0  0  0  0  0  0  0  0
   -0.2823   -2.5505   -5.2134 Si  0  0  0  0  0  4  0  0  0  0  0  0
    0.7117   -3.5682   -4.8202 H   0  0  0  0  0  0  0  0  0  0  0  0
   -0.0327   -2.2522   -6.6381 H   0  0  0  0  0  0  0  0  0  0  0  0
   -2.7287    1.1734   -5.2344 Si  0  0  0  0  0  4  0  0  0  0  0  0
   -3.9846    1.1007   -6.0228 H   0  0  0  0  0  0  0  0  0  0  0  0
   -1.8117    0.1736   -5.8457 H   0  0  0  0  0  0  0  0  0  0  0  0
   -1.8641    3.1886   -5.5123 Si  0  0  0  0  0  4  0  0  0  0  0  0
   -0.9826    3.5744   -4.4118 H   0  0  0  0  0  0  0  0  0  0  0  0
   -2.9854    4.1470   -5.6857 H   0  0  0  0  0  0  0  0  0  0  0  0
   -2.3473   -3.3055   -4.8992 Si  0  0  0  0  0  4  0  0  0  0  0  0
   -2.2732   -4.7871   -4.8440 H   0  0  0  0  0  0  0  0  0  0  0  0
   -2.9007   -2.8821   -3.5936 H   0  0  0  0  0  0  0  0  0  0  0  0
   -3.7092   -2.7342   -6.5655 Si  0  0  0  0  0  4  0  0  0  0  0  0
   -3.5512   -3.7403   -7.6542 H   0  0  0  0  0  0  0  0  0  0  0  0
   -3.3612   -1.4395   -7.1526 H   0  0  0  0  0  0  0  0  0  0  0  0
   -0.7536    3.1810   -7.4750 Si  0  0  0  0  0  4  0  0  0  0  0  0
   -0.6517    4.5150   -8.0347 H   0  0  0  0  0  0  0  0  0  0  0  0
    0.5425    2.5511   -7.2170 H   0  0  0  0  0  0  0  0  0  0  0  0
   -5.8395   -2.8074   -5.9004 Si  0  0  0  0  0  4  0  0  0  0  0  0
   -6.6640   -3.5695   -6.8470 H   0  0  0  0  0  0  0  0  0  0  0  0
   -5.8731   -3.4302   -4.5590 H   0  0  0  0  0  0  0  0  0  0  0  0
   -1.8975    1.8130   -8.8494 Si  0  0  0  0  0  4  0  0  0  0  0  0
   -2.1877    0.5811   -8.0802 H   0  0  0  0  0  0  0  0  0  0  0  0
   -1.0972    1.4371  -10.0107 H   0  0  0  0  0  0  0  0  0  0  0  0
   -3.8430    2.7179   -9.4310 Si  0  0  0  0  0  4  0  0  0  0  0  0
   -3.9687    2.6888  -10.8922 H   0  0  0  0  0  0  0  0  0  0  0  0
   -4.9826    1.9544   -8.8828 H   0  0  0  0  0  0  0  0  0  0  0  0
   -3.9592    4.0972   -8.9098 H   0  0  0  0  0  0  0  0  0  0  0  0
   -6.7023   -0.7478   -5.7270 Si  0  0  0  0  0  4  0  0  0  0  0  0
   -8.1574   -0.8245   -5.6711 H   0  0  0  0  0  0  0  0  0  0  0  0
   -6.2786    0.0608   -6.8918 H   0  0  0  0  0  0  0  0  0  0  0  0
   -6.1617   -0.0702   -4.5299 H   0  0  0  0  0  0  0  0  0  0  0  0
  1  2  1  0
  1  5  1  0
  2  3  1  0
  2  4  1  0
  2  8  1  0
  5  6  1  0
  5  7  1  0
  5 11  1  0
  8  9  1  0
  8 10  1  0
  8 17  1  0
 11 12  1  0
 11 13  1  0
 11 14  1  0
 14 15  1  0
 14 16  1  0
 14 23  1  0
 17 18  1  0
 17 19  1  0
 17 20  1  0
 20 21  1  0
 20 22  1  0
 20 26  1  0
 23 24  1  0
 23 25  1  0
 23 29  1  0
 26 27  1  0
 26 28  1  0
 26 36  1  0
 29 30  1  0
 29 31  1  0
 29 32  1  0
 32 33  1  0
 32 34  1  0
 32 35  1  0
 36 37  1  0
 36 38  1  0
 36 39  1  0
M  CHG  1   1   1
M  RAD  1   1   2
M  END
$$$$

     RDKit          3D

 39 38  0  0  0  0  0  0  0  0999 V2000
   -1.2799   -0.4521   -2.4429 S   0  0  0  0  0  2  0  0  0  0  0  0
   -1.9850    1.5722   -2.4370 Si  0  0  0  0  0  4  0  0  0  0  0  0
   -1.0553    2.4760   -1.7654 H   0  0  0  0  0  0  0  0  0  0  0  0
   -3.3121    1.5670   -1.7836 H   0  0  0  0  0  0  0  0  0  0  0  0
    0.5378   -0.6176   -3.5951 Si  0  0  0  0  0  4  0  0  0  0  0  0
    0.8955    0.6596   -4.2169 H   0  0  0  0  0  0  0  0  0  0  0  0
    1.6107   -0.9560   -2.6170 H   0  0  0  0  0  0  0  0  0  0  0  0
   -2.3382    2.1928   -4.5701 Si  0  0  0  0  0  4  0  0  0  0  0  0
   -3.0377    3.4717   -4.6451 H   0  0  0  0  0  0  0  0  0  0  0  0
   -1.0440    2.2548   -5.2252 H   0  0  0  0  0  0  0  0  0  0  0  0
    0.4023   -2.2809   -5.0431 Si  0  0  0  0  0  4  0  0  0  0  0  0
    1.2111   -3.4566   -4.6333 H   0  0  0  0  0  0  0  0  0  0  0  0
   -1.0055   -2.7567   -5.0625 H   0  0  0  0  0  0  0  0  0  0  0  0
    0.9667   -1.7100   -7.0922 Si  0  0  0  0  0  4  0  0  0  0  0  0
   -0.2005   -1.1649   -7.8118 H   0  0  0  0  0  0  0  0  0  0  0  0
    1.3639   -2.9452   -7.8250 H   0  0  0  0  0  0  0  0  0  0  0  0
   -3.5170    0.5468   -5.5404 Si  0  0  0  0  0  4  0  0  0  0  0  0
   -2.8004   -0.7184   -5.2633 H   0  0  0  0  0  0  0  0  0  0  0  0
   -4.8471    0.4712   -4.9011 H   0  0  0  0  0  0  0  0  0  0  0  0
   -3.6764    0.8571   -7.7372 Si  0  0  0  0  0  4  0  0  0  0  0  0
   -4.8434    0.1442   -8.2702 H   0  0  0  0  0  0  0  0  0  0  0  0
   -2.4587    0.3015   -8.3570 H   0  0  0  0  0  0  0  0  0  0  0  0
    2.6134   -0.2526   -7.1940 Si  0  0  0  0  0  4  0  0  0  0  0  0
    3.4382   -0.1936   -6.0058 H   0  0  0  0  0  0  0  0  0  0  0  0
    3.5078   -0.6018   -8.3341 H   0  0  0  0  0  0  0  0  0  0  0  0
   -3.8514    3.0403   -8.1392 Si  0  0  0  0  0  4  0  0  0  0  0  0
   -2.7884    3.7470   -7.4220 H   0  0  0  0  0  0  0  0  0  0  0  0
   -5.1702    3.4871   -7.6533 H   0  0  0  0  0  0  0  0  0  0  0  0
    1.8209    1.8034   -7.6490 Si  0  0  0  0  0  4  0  0  0  0  0  0
    0.9630    2.2204   -6.5421 H   0  0  0  0  0  0  0  0  0  0  0  0
    2.9401    2.7290   -7.8003 H   0  0  0  0  0  0  0  0  0  0  0  0
    0.6371    1.8094   -9.5208 Si  0  0  0  0  0  4  0  0  0  0  0  0
   -0.7956    2.0547   -9.2356 H   0  0  0  0  0  0  0  0  0  0  0  0
    0.7663    0.5665  -10.2766 H   0  0  0  0  0  0  0  0  0  0  0  0
    1.0688    2.9147  -10.4140 H   0  0  0  0  0  0  0  0  0  0  0  0
   -3.7261    3.3747  -10.3362 Si  0  0  0  0  0  4  0  0  0  0  0  0
   -4.5548    2.3539  -11.0078 H   0  0  0  0  0  0  0  0  0  0  0  0
   -4.3040    4.6990  -10.6199 H   0  0  0  0  0  0  0  0  0  0  0  0
   -2.3375    3.2905  -10.8099 H   0  0  0  0  0  0  0  0  0  0  0  0
  1  2  1  0
  1  5  1  0
  2  3  1  0
  2  4  1  0
  2  8  1  0
  5  6  1  0
  5  7  1  0
  5 11  1  0
  8  9  1  0
  8 10  1  0
  8 17  1  0
 11 12  1  0
 11 13  1  0
 11 14  1  0
 14 15  1  0
 14 16  1  0
 14 23  1  0
 17 18  1  0
 17 19  1  0
 17 20  1  0
 20 21  1  0
 20 22  1  0
 20 26  1  0
 23 24  1  0
 23 25  1  0
 23 29  1  0
 26 27  1  0
 26 28  1  0
 26 36  1  0
 29 30  1  0
 29 31  1  0
 29 32  1  0
 32 33  1  0
 32 34  1  0
 32 35  1  0
 36 37  1  0
 36 38  1  0
 36 39  1  0
M  CHG  1   1   1
M  RAD  1   1   2
M  END
$$$$

     RDKit          3D

 39 38  0  0  0  0  0  0  0  0999 V2000
   -1.2799   -0.4521   -2.4429 S   0  0  0  0  0  2  0  0  0  0  0  0
   -2.1336    1.5113   -2.3373 Si  0  0  0  0  0  4  0  0  0  0  0  0
   -1.2667    2.4503   -1.6309 H   0  0  0  0  0  0  0  0  0  0  0  0
   -3.4496    1.3767   -1.6754 H   0  0  0  0  0  0  0  0  0  0  0  0
    0.5327   -0.4278   -3.6145 Si  0  0  0  0  0  4  0  0  0  0  0  0
    0.7877    0.8998   -4.1785 H   0  0  0  0  0  0  0  0  0  0  0  0
    1.6382   -0.7297   -2.6610 H   0  0  0  0  0  0  0  0  0  0  0  0
   -2.5547    2.2013   -4.4365 Si  0  0  0  0  0  4  0  0  0  0  0  0
   -3.3482    3.4265   -4.4467 H   0  0  0  0  0  0  0  0  0  0  0  0
   -1.2757    2.3902   -5.0972 H   0  0  0  0  0  0  0  0  0  0  0  0
    0.5060   -2.0281   -5.1377 Si  0  0  0  0  0  4  0  0  0  0  0  0
    1.4044   -3.1576   -4.7890 H   0  0  0  0  0  0  0  0  0  0  0  0
   -0.8625   -2.6065   -5.1693 H   0  0  0  0  0  0  0  0  0  0  0  0
    1.0046   -1.3228   -7.1619 Si  0  0  0  0  0  4  0  0  0  0  0  0
   -0.2075   -0.8340   -7.8469 H   0  0  0  0  0  0  0  0  0  0  0  0
    1.4849   -2.4897   -7.9544 H   0  0  0  0  0  0  0  0  0  0  0  0
   -3.6179    0.5183   -5.4742 Si  0  0  0  0  0  4  0  0  0  0  0  0
   -2.8062   -0.7012   -5.2617 H   0  0  0  0  0  0  0  0  0  0  0  0
   -4.9318    0.3139   -4.8296 H   0  0  0  0  0  0  0  0  0  0  0  0
   -3.8232    0.9166   -7.6529 Si  0  0  0  0  0  4  0  0  0  0  0  0
   -4.9396    0.1437   -8.2104 H   0  0  0  0  0  0  0  0  0  0  0  0
   -2.5742    0.4828   -8.3067 H   0  0  0  0  0  0  0  0  0  0  0  0
    2.5371    0.2569   -7.2072 Si  0  0  0  0  0  4  0  0  0  0  0  0
    3.3677    0.3227   -6.0235 H   0  0  0  0  0  0  0  0  0  0  0  0
    3.4428    0.0286   -8.3688 H   0  0  0  0  0  0  0  0  0  0  0  0
   -4.1645    3.0968   -7.9512 Si  0  0  0  0  0  4  0  0  0  0  0  0
   -3.1496    3.8472   -7.2094 H   0  0  0  0  0  0  0  0  0  0  0  0
   -5.5078    3.4207   -7.4356 H   0  0  0  0  0  0  0  0  0  0  0  0
    1.5890    2.2667   -7.5599 Si  0  0  0  0  0  4  0  0  0  0  0  0
    0.7142    2.5668   -6.4286 H   0  0  0  0  0  0  0  0  0  0  0  0
    2.6345    3.2794   -7.6758 H   0  0  0  0  0  0  0  0  0  0  0  0
    0.3882    2.2703   -9.4209 Si  0  0  0  0  0  4  0  0  0  0  0  0
   -1.0557    2.3942   -9.1143 H   0  0  0  0  0  0  0  0  0  0  0  0
    0.6015    1.0766  -10.2349 H   0  0  0  0  0  0  0  0  0  0  0  0
    0.7269    3.4447  -10.2645 H   0  0  0  0  0  0  0  0  0  0  0  0
   -4.0879    3.5405  -10.1310 Si  0  0  0  0  0  4  0  0  0  0  0  0
   -4.8453    2.4925  -10.8436 H   0  0  0  0  0  0  0  0  0  0  0  0
   -4.7657    4.8295  -10.3484 H   0  0  0  0  0  0  0  0  0  0  0  0
   -2.7020    3.5824  -10.6180 H   0  0  0  0  0  0  0  0  0  0  0  0
  1  2  1  0
  1  5  1  0
  2  3  1  0
  2  4  1  0
  2  8  1  0
  5  6  1  0
  5  7  1  0
  5 11  1  0
  8  9  1  0
  8 10  1  0
  8 17  1  0
 11 12  1  0
 11 13  1  0
 11 14  1  0
 14 15  1  0
 14 16  1  0
 14 23  1  0
 17 18  1  0
 17 19  1  0
 17 20  1  0
 20 21  1  0
 20 22  1  0
 20 26  1  0
 23 24  1  0
 23 25  1  0
 23 29  1  0
 26 27  1  0
 26 28  1  0
 26 36  1  0
 29 30  1  0
 29 31  1  0
 29 32  1  0
 32 33  1  0
 32 34  1  0
 32 35  1  0
 36 37  1  0
 36 38  1  0
 36 39  1  0
M  CHG  1   1   1
M  RAD  1   1   2
M  END
$$$$

     RDKit          3D

 39 38  0  0  0  0  0  0  0  0999 V2000
   -1.2799   -0.4521   -2.4429 S   0  0  0  0  0  2  0  0  0  0  0  0
   -0.6958   -1.2181   -4.3487 Si  0  0  0  0  0  4  0  0  0  0  0  0
   -0.8832   -2.6802   -4.3192 H   0  0  0  0  0  0  0  0  0  0  0  0
   -1.5480   -0.6831   -5.4069 H   0  0  0  0  0  0  0  0  0  0  0  0
   -3.3275    0.1937   -2.4669 Si  0  0  0  0  0  4  0  0  0  0  0  0
   -3.3424    1.6120   -2.0126 H   0  0  0  0  0  0  0  0  0  0  0  0
   -4.1822   -0.6203   -1.6275 H   0  0  0  0  0  0  0  0  0  0  0  0
    1.4352   -0.8111   -4.8060 Si  0  0  0  0  0  4  0  0  0  0  0  0
    2.2399   -0.7838   -3.5671 H   0  0  0  0  0  0  0  0  0  0  0  0
    1.9302   -1.9052   -5.6735 H   0  0  0  0  0  0  0  0  0  0  0  0
   -4.0278    0.2249   -4.6031 Si  0  0  0  0  0  4  0  0  0  0  0  0
   -5.4989    0.3333   -4.6671 H   0  0  0  0  0  0  0  0  0  0  0  0
   -3.6129   -0.9994   -5.2856 H   0  0  0  0  0  0  0  0  0  0  0  0
   -3.0774    1.9921   -5.5852 Si  0  0  0  0  0  4  0  0  0  0  0  0
   -2.5091    1.6640   -6.8851 H   0  0  0  0  0  0  0  0  0  0  0  0
   -1.9922    2.5530   -4.7503 H   0  0  0  0  0  0  0  0  0  0  0  0
    1.7174    1.1194   -5.8702 Si  0  0  0  0  0  4  0  0  0  0  0  0
    0.8226    2.1309   -5.2843 H   0  0  0  0  0  0  0  0  0  0  0  0
    3.1239    1.5290   -5.6888 H   0  0  0  0  0  0  0  0  0  0  0  0
    1.3026    0.9253   -8.0581 Si  0  0  0  0  0  4  0  0  0  0  0  0
    1.5849   -0.4442   -8.4898 H   0  0  0  0  0  0  0  0  0  0  0  0
   -0.1180    1.2219   -8.3143 H   0  0  0  0  0  0  0  0  0  0  0  0
   -4.6419    3.5999   -5.7468 Si  0  0  0  0  0  4  0  0  0  0  0  0
   -5.6913    3.1305   -6.6435 H   0  0  0  0  0  0  0  0  0  0  0  0
   -5.1655    3.8183   -4.3934 H   0  0  0  0  0  0  0  0  0  0  0  0
    2.5637    2.3370   -9.2227 Si  0  0  0  0  0  4  0  0  0  0  0  0
    3.6960    2.7593   -8.4013 H   0  0  0  0  0  0  0  0  0  0  0  0
    3.0737    1.6932  -10.4537 H   0  0  0  0  0  0  0  0  0  0  0  0
   -3.6304    5.4382   -6.5162 Si  0  0  0  0  0  4  0  0  0  0  0  0
   -2.7406    5.0153   -7.6218 H   0  0  0  0  0  0  0  0  0  0  0  0
   -4.6268    6.4024   -6.9802 H   0  0  0  0  0  0  0  0  0  0  0  0
   -2.3929    6.3188   -4.8841 Si  0  0  0  0  0  4  0  0  0  0  0  0
   -1.1995    6.9120   -5.4984 H   0  0  0  0  0  0  0  0  0  0  0  0
   -3.1329    7.3514   -4.1512 H   0  0  0  0  0  0  0  0  0  0  0  0
   -1.9415    5.2774   -3.9345 H   0  0  0  0  0  0  0  0  0  0  0  0
    1.4105    4.1421   -9.8590 Si  0  0  0  0  0  4  0  0  0  0  0  0
    0.9114    4.8838   -8.7035 H   0  0  0  0  0  0  0  0  0  0  0  0
    0.2897    3.7666  -10.7240 H   0  0  0  0  0  0  0  0  0  0  0  0
    2.3412    5.0181  -10.5899 H   0  0  0  0  0  0  0  0  0  0  0  0
  1  2  1  0
  1  5  1  0
  2  3  1  0
  2  4  1  0
  2  8  1  0
  5  6  1  0
  5  7  1  0
  5 11  1  0
  8  9  1  0
  8 10  1  0
  8 17  1  0
 11 12  1  0
 11 13  1  0
 11 14  1  0
 14 15  1  0
 14 16  1  0
 14 23  1  0
 17 18  1  0
 17 19  1  0
 17 20  1  0
 20 21  1  0
 20 22  1  0
 20 26  1  0
 23 24  1  0
 23 25  1  0
 23 29  1  0
 26 27  1  0
 26 28  1  0
 26 36  1  0
 29 30  1  0
 29 31  1  0
 29 32  1  0
 32 33  1  0
 32 34  1  0
 32 35  1  0
 36 37  1  0
 36 38  1  0
 36 39  1  0
M  CHG  1   1   1
M  RAD  1   1   2
M  END
$$$$

     RDKit          3D

 39 38  0  0  0  0  0  0  0  0999 V2000
   -1.2799   -0.4521   -2.4429 S   0  0  0  0  0  2  0  0  0  0  0  0
   -2.6196   -1.9896   -3.0051 Si  0  0  0  0  0  4  0  0  0  0  0  0
   -3.7986   -1.4772   -3.7219 H   0  0  0  0  0  0  0  0  0  0  0  0
   -3.1370   -2.6290   -1.7673 H   0  0  0  0  0  0  0  0  0  0  0  0
   -0.9692    1.0015   -3.9431 Si  0  0  0  0  0  4  0  0  0  0  0  0
    0.3925    0.8509   -4.4830 H   0  0  0  0  0  0  0  0  0  0  0  0
   -1.0224    2.3500   -3.3099 H   0  0  0  0  0  0  0  0  0  0  0  0
   -1.6038   -3.5949   -4.1905 Si  0  0  0  0  0  4  0  0  0  0  0  0
   -2.6330   -4.4491   -4.7921 H   0  0  0  0  0  0  0  0  0  0  0  0
   -0.8118   -4.4320   -3.2812 H   0  0  0  0  0  0  0  0  0  0  0  0
   -2.4977    0.9533   -5.5429 Si  0  0  0  0  0  4  0  0  0  0  0  0
   -3.7642    1.4635   -4.9811 H   0  0  0  0  0  0  0  0  0  0  0  0
   -2.7451   -0.4091   -5.9968 H   0  0  0  0  0  0  0  0  0  0  0  0
   -1.9204    2.2742   -7.2258 Si  0  0  0  0  0  4  0  0  0  0  0  0
   -3.0408    2.2887   -8.1988 H   0  0  0  0  0  0  0  0  0  0  0  0
   -1.7236    3.6402   -6.7625 H   0  0  0  0  0  0  0  0  0  0  0  0
   -0.3709   -2.7002   -5.8071 Si  0  0  0  0  0  4  0  0  0  0  0  0
    0.9140   -3.4347   -5.8541 H   0  0  0  0  0  0  0  0  0  0  0  0
   -0.0440   -1.2943   -5.5538 H   0  0  0  0  0  0  0  0  0  0  0  0
   -1.4143   -2.8430   -7.7844 Si  0  0  0  0  0  4  0  0  0  0  0  0
   -2.4328   -3.8884   -7.7879 H   0  0  0  0  0  0  0  0  0  0  0  0
   -2.0010   -1.5342   -8.1680 H   0  0  0  0  0  0  0  0  0  0  0  0
   -0.1089    1.5709   -8.2795 Si  0  0  0  0  0  4  0  0  0  0  0  0
   -0.1792    2.0562   -9.6860 H   0  0  0  0  0  0  0  0  0  0  0  0
   -0.0424    0.1010   -8.3683 H   0  0  0  0  0  0  0  0  0  0  0  0
    0.1310   -3.4113   -9.3142 Si  0  0  0  0  0  4  0  0  0  0  0  0
    1.3227   -2.5926   -9.0386 H   0  0  0  0  0  0  0  0  0  0  0  0
   -0.3585   -3.1874  -10.6751 H   0  0  0  0  0  0  0  0  0  0  0  0
    1.7577    2.4195   -7.3866 Si  0  0  0  0  0  4  0  0  0  0  0  0
    2.4262    3.3502   -8.3160 H   0  0  0  0  0  0  0  0  0  0  0  0
    1.4476    3.1324   -6.1330 H   0  0  0  0  0  0  0  0  0  0  0  0
    3.1795    0.7320   -7.0179 Si  0  0  0  0  0  4  0  0  0  0  0  0
    2.3863   -0.4196   -6.5633 H   0  0  0  0  0  0  0  0  0  0  0  0
    4.1500    1.0962   -6.0013 H   0  0  0  0  0  0  0  0  0  0  0  0
    3.8684    0.3750   -8.2638 H   0  0  0  0  0  0  0  0  0  0  0  0
    0.6257   -5.5759   -8.9666 Si  0  0  0  0  0  4  0  0  0  0  0  0
    1.7177   -6.0079   -9.8348 H   0  0  0  0  0  0  0  0  0  0  0  0
   -0.5977   -6.3687   -9.1915 H   0  0  0  0  0  0  0  0  0  0  0  0
    0.9632   -5.7170   -7.5332 H   0  0  0  0  0  0  0  0  0  0  0  0
  1  2  1  0
  1  5  1  0
  2  3  1  0
  2  4  1  0
  2  8  1  0
  5  6  1  0
  5  7  1  0
  5 11  1  0
  8  9  1  0
  8 10  1  0
  8 17  1  0
 11 12  1  0
 11 13  1  0
 11 14  1  0
 14 15  1  0
 14 16  1  0
 14 23  1  0
 17 18  1  0
 17 19  1  0
 17 20  1  0
 20 21  1  0
 20 22  1  0
 20 26  1  0
 23 24  1  0
 23 25  1  0
 23 29  1  0
 26 27  1  0
 26 28  1  0
 26 36  1  0
 29 30  1  0
 29 31  1  0
 29 32  1  0
 32 33  1  0
 32 34  1  0
 32 35  1  0
 36 37  1  0
 36 38  1  0
 36 39  1  0
M  CHG  1   1   1
M  RAD  1   1   2
M  END
$$$$

     RDKit          3D

 39 38  0  0  0  0  0  0  0  0999 V2000
   -1.2799   -0.4521   -2.4429 S   0  0  0  0  0  2  0  0  0  0  0  0
   -1.7774    1.3537   -3.4488 Si  0  0  0  0  0  4  0  0  0  0  0  0
   -3.2209    1.5416   -3.6156 H   0  0  0  0  0  0  0  0  0  0  0  0
   -1.2978    2.4812   -2.6176 H   0  0  0  0  0  0  0  0  0  0  0  0
   -1.8803   -2.1796   -3.5245 Si  0  0  0  0  0  4  0  0  0  0  0  0
   -3.3278   -2.2022   -3.8057 H   0  0  0  0  0  0  0  0  0  0  0  0
   -1.6153   -3.3629   -2.6672 H   0  0  0  0  0  0  0  0  0  0  0  0
   -0.7568    1.5245   -5.4275 Si  0  0  0  0  0  4  0  0  0  0  0  0
   -1.0625    0.4160   -6.3128 H   0  0  0  0  0  0  0  0  0  0  0  0
   -1.2700    2.7562   -6.0719 H   0  0  0  0  0  0  0  0  0  0  0  0
   -0.6833   -2.4525   -5.3966 Si  0  0  0  0  0  4  0  0  0  0  0  0
    0.3107   -1.3446   -5.4310 H   0  0  0  0  0  0  0  0  0  0  0  0
   -1.6050   -2.3719   -6.5288 H   0  0  0  0  0  0  0  0  0  0  0  0
    0.4601   -4.3583   -5.3625 Si  0  0  0  0  0  4  0  0  0  0  0  0
    0.3254   -4.9425   -4.0224 H   0  0  0  0  0  0  0  0  0  0  0  0
    1.9127   -4.1319   -5.5729 H   0  0  0  0  0  0  0  0  0  0  0  0
    1.4387    1.8119   -5.1356 Si  0  0  0  0  0  4  0  0  0  0  0  0
    1.9862    0.6393   -4.4141 H   0  0  0  0  0  0  0  0  0  0  0  0
    1.6687    3.0494   -4.4113 H   0  0  0  0  0  0  0  0  0  0  0  0
    2.3907    1.8382   -7.1680 Si  0  0  0  0  0  4  0  0  0  0  0  0
    3.5614    2.7113   -7.2031 H   0  0  0  0  0  0  0  0  0  0  0  0
    1.3890    2.3790   -8.1161 H   0  0  0  0  0  0  0  0  0  0  0  0
   -0.2504   -5.8028   -6.8728 Si  0  0  0  0  0  4  0  0  0  0  0  0
    0.8893   -6.4480   -7.5592 H   0  0  0  0  0  0  0  0  0  0  0  0
   -1.0315   -6.8649   -6.2198 H   0  0  0  0  0  0  0  0  0  0  0  0
    2.9134   -0.2698   -7.7222 Si  0  0  0  0  0  4  0  0  0  0  0  0
    2.6726   -1.1862   -6.5828 H   0  0  0  0  0  0  0  0  0  0  0  0
    4.3422   -0.3375   -8.0305 H   0  0  0  0  0  0  0  0  0  0  0  0
   -1.5485   -4.8565   -8.4133 Si  0  0  0  0  0  4  0  0  0  0  0  0
   -1.7983   -5.8728   -9.4653 H   0  0  0  0  0  0  0  0  0  0  0  0
   -0.9075   -3.7188   -9.0670 H   0  0  0  0  0  0  0  0  0  0  0  0
   -3.5221   -4.2747   -7.5291 Si  0  0  0  0  0  4  0  0  0  0  0  0
   -4.5611   -5.2615   -7.8693 H   0  0  0  0  0  0  0  0  0  0  0  0
   -3.8804   -2.9683   -8.0912 H   0  0  0  0  0  0  0  0  0  0  0  0
   -3.3602   -4.2298   -6.0779 H   0  0  0  0  0  0  0  0  0  0  0  0
    1.7298   -0.9247   -9.5128 Si  0  0  0  0  0  4  0  0  0  0  0  0
    2.5680   -0.9921  -10.7127 H   0  0  0  0  0  0  0  0  0  0  0  0
    1.2554   -2.3006   -9.2487 H   0  0  0  0  0  0  0  0  0  0  0  0
    0.6008   -0.0234   -9.7515 H   0  0  0  0  0  0  0  0  0  0  0  0
  1  2  1  0
  1  5  1  0
  2  3  1  0
  2  4  1  0
  2  8  1  0
  5  6  1  0
  5  7  1  0
  5 11  1  0
  8  9  1  0
  8 10  1  0
  8 17  1  0
 11 12  1  0
 11 13  1  0
 11 14  1  0
 14 15  1  0
 14 16  1  0
 14 23  1  0
 17 18  1  0
 17 19  1  0
 17 20  1  0
 20 21  1  0
 20 22  1  0
 20 26  1  0
 23 24  1  0
 23 25  1  0
 23 29  1  0
 26 27  1  0
 26 28  1  0
 26 36  1  0
 29 30  1  0
 29 31  1  0
 29 32  1  0
 32 33  1  0
 32 34  1  0
 32 35  1  0
 36 37  1  0
 36 38  1  0
 36 39  1  0
M  CHG  1   1   1
M  RAD  1   1   2
M  END
$$$$
