
     RDKit          3D

 39 38  0  0  0  0  0  0  0  0999 V2000
   -0.0142   -0.1265    3.2001 S   0  0  0  0  0  2  0  0  0  0  0  0
   -0.1059    1.2469    4.7951 Si  0  0  0  0  0  4  0  0  0  0  0  0
   -1.4920    1.7404    4.9241 H   0  0  0  0  0  0  0  0  0  0  0  0
    0.7360    2.4259    4.4505 H   0  0  0  0  0  0  0  0  0  0  0  0
   -0.4032   -2.1256    3.7311 Si  0  0  0  0  0  4  0  0  0  0  0  0
   -0.6514   -2.9039    2.4831 H   0  0  0  0  0  0  0  0  0  0  0  0
    0.7393   -2.7636    4.3869 H   0  0  0  0  0  0  0  0  0  0  0  0
    0.6242    0.4357    6.7154 Si  0  0  0  0  0  4  0  0  0  0  0  0
    0.0889   -0.8719    7.0443 H   0  0  0  0  0  0  0  0  0  0  0  0
    2.1019    0.2877    6.6167 H   0  0  0  0  0  0  0  0  0  0  0  0
   -2.1829   -2.3724    5.0278 Si  0  0  0  0  0  4  0  0  0  0  0  0
   -1.9546   -1.9570    6.4064 H   0  0  0  0  0  0  0  0  0  0  0  0
   -2.5002   -3.8291    5.0738 H   0  0  0  0  0  0  0  0  0  0  0  0
   -3.9608   -1.3046    4.2492 Si  0  0  0  0  0  4  0  0  0  0  0  0
   -4.9925   -2.2516    3.7928 H   0  0  0  0  0  0  0  0  0  0  0  0
   -3.5741   -0.4838    3.0769 H   0  0  0  0  0  0  0  0  0  0  0  0
    0.0652    1.8474    8.3513 Si  0  0  0  0  0  4  0  0  0  0  0  0
   -0.7349    2.9617    7.8661 H   0  0  0  0  0  0  0  0  0  0  0  0
   -0.6833    1.1471    9.4253 H   0  0  0  0  0  0  0  0  0  0  0  0
    1.9597    2.5979    9.3017 Si  0  0  0  0  0  4  0  0  0  0  0  0
    1.6968    3.7608   10.1575 H   0  0  0  0  0  0  0  0  0  0  0  0
    2.8721    2.9571    8.1973 H   0  0  0  0  0  0  0  0  0  0  0  0
   -4.8617    0.0576    5.7513 Si  0  0  0  0  0  4  0  0  0  0  0  0
   -4.2160    1.3780    5.7636 H   0  0  0  0  0  0  0  0  0  0  0  0
   -6.2754    0.2549    5.3974 H   0  0  0  0  0  0  0  0  0  0  0  0
    2.7980    0.9001   10.5102 Si  0  0  0  0  0  4  0  0  0  0  0  0
    3.0732   -0.2042    9.5748 H   0  0  0  0  0  0  0  0  0  0  0  0
    4.0047    1.3007   11.2190 H   0  0  0  0  0  0  0  0  0  0  0  0
   -4.7698   -0.7708    7.8083 Si  0  0  0  0  0  4  0  0  0  0  0  0
   -3.5526   -0.2898    8.5039 H   0  0  0  0  0  0  0  0  0  0  0  0
   -4.7979   -2.2265    7.8418 H   0  0  0  0  0  0  0  0  0  0  0  0
   -6.5268    0.0716    8.9445 Si  0  0  0  0  0  4  0  0  0  0  0  0
   -7.7405   -0.4704    8.2969 H   0  0  0  0  0  0  0  0  0  0  0  0
   -6.4491   -0.2486   10.3573 H   0  0  0  0  0  0  0  0  0  0  0  0
   -6.5274    1.5281    8.6855 H   0  0  0  0  0  0  0  0  0  0  0  0
    1.1854    0.2162   11.9030 Si  0  0  0  0  0  4  0  0  0  0  0  0
    1.7807   -0.7628   12.8135 H   0  0  0  0  0  0  0  0  0  0  0  0
    0.7014    1.3674   12.6624 H   0  0  0  0  0  0  0  0  0  0  0  0
    0.1100   -0.3795   11.1061 H   0  0  0  0  0  0  0  0  0  0  0  0
  1  2  1  0
  1  5  1  0
  2  3  1  0
  2  4  1  0
  2  8  1  0
  5  6  1  0
  5  7  1  0
  5 11  1  0
  8  9  1  0
  8 10  1  0
  8 17  1  0
 11 12  1  0
 11 13  1  0
 11 14  1  0
 14 15  1  0
 14 16  1  0
 14 23  1  0
 17 18  1  0
 17 19  1  0
 17 20  1  0
 20 21  1  0
 20 22  1  0
 20 26  1  0
 23 24  1  0
 23 25  1  0
 23 29  1  0
 26 27  1  0
 26 28  1  0
 26 36  1  0
 29 30  1  0
 29 31  1  0
 29 32  1  0
 32 33  1  0
 32 34  1  0
 32 35  1  0
 36 37  1  0
 36 38  1  0
 36 39  1  0
M  CHG  1   1   1
M  RAD  1   1   2
M  END
$$$$

     RDKit          3D

 39 38  0  0  0  0  0  0  0  0999 V2000
   -0.0142   -0.1265    3.2001 S   0  0  0  0  0  2  0  0  0  0  0  0
    1.8720    0.1774    4.2240 Si  0  0  0  0  0  4  0  0  0  0  0  0
    2.2143    1.6137    4.2138 H   0  0  0  0  0  0  0  0  0  0  0  0
    2.9179   -0.6366    3.6184 H   0  0  0  0  0  0  0  0  0  0  0  0
   -0.8281   -2.0272    3.8221 Si  0  0  0  0  0  4  0  0  0  0  0  0
   -1.5995   -2.6238    2.7163 H   0  0  0  0  0  0  0  0  0  0  0  0
    0.3115   -2.8873    4.1558 H   0  0  0  0  0  0  0  0  0  0  0  0
    1.5639   -0.4777    6.3448 Si  0  0  0  0  0  4  0  0  0  0  0  0
    0.2974    0.1362    6.7982 H   0  0  0  0  0  0  0  0  0  0  0  0
    1.4510   -1.9461    6.3260 H   0  0  0  0  0  0  0  0  0  0  0  0
   -2.2031   -1.7888    5.5527 Si  0  0  0  0  0  4  0  0  0  0  0  0
   -1.4856   -1.4708    6.7851 H   0  0  0  0  0  0  0  0  0  0  0  0
   -3.1452   -0.6991    5.2917 H   0  0  0  0  0  0  0  0  0  0  0  0
   -3.2965   -3.7215    5.8466 Si  0  0  0  0  0  4  0  0  0  0  0  0
   -2.9153   -4.7119    4.8433 H   0  0  0  0  0  0  0  0  0  0  0  0
   -4.7513   -3.4620    5.7398 H   0  0  0  0  0  0  0  0  0  0  0  0
    3.1906    0.2273    7.6683 Si  0  0  0  0  0  4  0  0  0  0  0  0
    3.6025   -0.9204    8.5246 H   0  0  0  0  0  0  0  0  0  0  0  0
    4.3252    0.7467    6.9121 H   0  0  0  0  0  0  0  0  0  0  0  0
    2.4334    1.8144    9.0756 Si  0  0  0  0  0  4  0  0  0  0  0  0
    2.3873    3.1020    8.3623 H   0  0  0  0  0  0  0  0  0  0  0  0
    3.3118    1.8677   10.2313 H   0  0  0  0  0  0  0  0  0  0  0  0
   -2.9487   -4.4886    7.9311 Si  0  0  0  0  0  4  0  0  0  0  0  0
   -3.9593   -5.4611    8.3093 H   0  0  0  0  0  0  0  0  0  0  0  0
   -3.1213   -3.3164    8.8350 H   0  0  0  0  0  0  0  0  0  0  0  0
    0.3330    1.3050    9.6745 Si  0  0  0  0  0  4  0  0  0  0  0  0
   -0.0403    1.9673   10.9327 H   0  0  0  0  0  0  0  0  0  0  0  0
   -0.5825    1.7686    8.6351 H   0  0  0  0  0  0  0  0  0  0  0  0
   -0.8918   -5.2852    8.1658 Si  0  0  0  0  0  4  0  0  0  0  0  0
   -0.9752   -6.6106    8.7961 H   0  0  0  0  0  0  0  0  0  0  0  0
   -0.0979   -4.4107    9.0532 H   0  0  0  0  0  0  0  0  0  0  0  0
    0.1816   -5.4480    6.2331 Si  0  0  0  0  0  4  0  0  0  0  0  0
   -0.6947   -5.2407    5.0753 H   0  0  0  0  0  0  0  0  0  0  0  0
    0.8618   -6.7563    6.1174 H   0  0  0  0  0  0  0  0  0  0  0  0
    1.2574   -4.4278    6.1279 H   0  0  0  0  0  0  0  0  0  0  0  0
    0.2229   -0.9263    9.8686 Si  0  0  0  0  0  4  0  0  0  0  0  0
   -1.0812   -1.4230    9.3892 H   0  0  0  0  0  0  0  0  0  0  0  0
    0.3857   -1.3486   11.2678 H   0  0  0  0  0  0  0  0  0  0  0  0
    1.2462   -1.5734    9.0158 H   0  0  0  0  0  0  0  0  0  0  0  0
  1  2  1  0
  1  5  1  0
  2  3  1  0
  2  4  1  0
  2  8  1  0
  5  6  1  0
  5  7  1  0
  5 11  1  0
  8  9  1  0
  8 10  1  0
  8 17  1  0
 11 12  1  0
 11 13  1  0
 11 14  1  0
 14 15  1  0
 14 16  1  0
 14 23  1  0
 17 18  1  0
 17 19  1  0
 17 20  1  0
 20 21  1  0
 20 22  1  0
 20 26  1  0
 23 24  1  0
 23 25  1  0
 23 29  1  0
 26 27  1  0
 26 28  1  0
 26 36  1  0
 29 30  1  0
 29 31  1  0
 29 32  1  0
 32 33  1  0
 32 34  1  0
 32 35  1  0
 36 37  1  0
 36 38  1  0
 36 39  1  0
M  CHG  1   1   1
M  RAD  1   1   2
M  END
$$$$

     RDKit          3D

 39 38  0  0  0  0  0  0  0  0999 V2000
   -0.0142   -0.1265    3.2001 S   0  0  0  0  0  2  0  0  0  0  0  0
    0.8647   -1.9491    3.7964 Si  0  0  0  0  0  4  0  0  0  0  0  0
    0.1748   -3.0573    3.0774 H   0  0  0  0  0  0  0  0  0  0  0  0
    2.2640   -1.9886    3.3467 H   0  0  0  0  0  0  0  0  0  0  0  0
   -1.0293    0.9032    4.7325 Si  0  0  0  0  0  4  0  0  0  0  0  0
   -1.2766    0.1306    5.9309 H   0  0  0  0  0  0  0  0  0  0  0  0
   -2.3337    1.4088    4.2494 H   0  0  0  0  0  0  0  0  0  0  0  0
    0.7477   -2.3139    5.9771 Si  0  0  0  0  0  4  0  0  0  0  0  0
    0.2059   -1.0942    6.6121 H   0  0  0  0  0  0  0  0  0  0  0  0
   -0.1491   -3.4313    6.3037 H   0  0  0  0  0  0  0  0  0  0  0  0
    0.1760    2.7237    5.2871 Si  0  0  0  0  0  4  0  0  0  0  0  0
    1.5277    2.2797    5.6382 H   0  0  0  0  0  0  0  0  0  0  0  0
    0.1965    3.6520    4.1576 H   0  0  0  0  0  0  0  0  0  0  0  0
   -0.7387    3.7365    7.0324 Si  0  0  0  0  0  4  0  0  0  0  0  0
   -0.0577    5.0339    7.2183 H   0  0  0  0  0  0  0  0  0  0  0  0
   -2.1575    3.9844    6.7955 H   0  0  0  0  0  0  0  0  0  0  0  0
    2.7807   -2.6428    6.8711 Si  0  0  0  0  0  4  0  0  0  0  0  0
    3.6755   -3.3234    5.9553 H   0  0  0  0  0  0  0  0  0  0  0  0
    2.5779   -3.4525    8.0914 H   0  0  0  0  0  0  0  0  0  0  0  0
    3.6041   -0.6553    7.5199 Si  0  0  0  0  0  4  0  0  0  0  0  0
    4.3690   -0.0670    6.4246 H   0  0  0  0  0  0  0  0  0  0  0  0
    2.4315    0.2001    7.8244 H   0  0  0  0  0  0  0  0  0  0  0  0
   -0.4921    2.5661    8.8999 Si  0  0  0  0  0  4  0  0  0  0  0  0
   -0.5921    3.4638   10.0634 H   0  0  0  0  0  0  0  0  0  0  0  0
    0.8433    1.9430    8.9135 H   0  0  0  0  0  0  0  0  0  0  0  0
    4.8010   -0.8418    9.3773 Si  0  0  0  0  0  4  0  0  0  0  0  0
    4.9697   -2.2472    9.7859 H   0  0  0  0  0  0  0  0  0  0  0  0
    6.1209   -0.2234    9.1272 H   0  0  0  0  0  0  0  0  0  0  0  0
   -2.0391    0.9795    9.1091 Si  0  0  0  0  0  4  0  0  0  0  0  0
   -3.0106    1.3261   10.1725 H   0  0  0  0  0  0  0  0  0  0  0  0
   -2.8101    0.8636    7.8482 H   0  0  0  0  0  0  0  0  0  0  0  0
   -1.0991   -0.9816    9.6410 Si  0  0  0  0  0  4  0  0  0  0  0  0
   -1.5726   -1.4878   10.9218 H   0  0  0  0  0  0  0  0  0  0  0  0
   -1.3581   -1.9720    8.5696 H   0  0  0  0  0  0  0  0  0  0  0  0
    0.3759   -0.7875    9.6509 H   0  0  0  0  0  0  0  0  0  0  0  0
    3.8146    0.2241   11.0881 Si  0  0  0  0  0  4  0  0  0  0  0  0
    4.7516    0.2037   12.2168 H   0  0  0  0  0  0  0  0  0  0  0  0
    3.4580    1.6034   10.6914 H   0  0  0  0  0  0  0  0  0  0  0  0
    2.5800   -0.5040   11.4460 H   0  0  0  0  0  0  0  0  0  0  0  0
  1  2  1  0
  1  5  1  0
  2  3  1  0
  2  4  1  0
  2  8  1  0
  5  6  1  0
  5  7  1  0
  5 11  1  0
  8  9  1  0
  8 10  1  0
  8 17  1  0
 11 12  1  0
 11 13  1  0
 11 14  1  0
 14 15  1  0
 14 16  1  0
 14 23  1  0
 17 18  1  0
 17 19  1  0
 17 20  1  0
 20 21  1  0
 20 22  1  0
 20 26  1  0
 23 24  1  0
 23 25  1  0
 23 29  1  0
 26 27  1  0
 26 28  1  0
 26 36  1  0
 29 30  1  0
 29 31  1  0
 29 32  1  0
 32 33  1  0
 32 34  1  0
 32 35  1  0
 36 37  1  0
 36 38  1  0
 36 39  1  0
M  CHG  1   1   1
M  RAD  1   1   2
M  END
$$$$

     RDKit          3D

 39 38  0  0  0  0  0  0  0  0999 V2000
   -0.0142   -0.1265    3.2001 S   0  0  0  0  0  2  0  0  0  0  0  0
    1.8631    0.2273    4.2245 Si  0  0  0  0  0  4  0  0  0  0  0  0
    2.1670    1.6723    4.2145 H   0  0  0  0  0  0  0  0  0  0  0  0
    2.9304   -0.5585    3.6190 H   0  0  0  0  0  0  0  0  0  0  0  0
   -0.7774   -2.0482    3.8217 Si  0  0  0  0  0  4  0  0  0  0  0  0
   -1.5325   -2.6650    2.7158 H   0  0  0  0  0  0  0  0  0  0  0  0
    0.3846   -2.8777    4.1556 H   0  0  0  0  0  0  0  0  0  0  0  0
    1.5720   -0.4359    6.3451 Si  0  0  0  0  0  4  0  0  0  0  0  0
    0.2896    0.1440    6.7983 H   0  0  0  0  0  0  0  0  0  0  0  0
    1.4981   -1.9068    6.3261 H   0  0  0  0  0  0  0  0  0  0  0  0
   -2.1586   -1.8466    5.5521 Si  0  0  0  0  0  4  0  0  0  0  0  0
   -1.4501   -1.5098    6.7847 H   0  0  0  0  0  0  0  0  0  0  0  0
   -3.1294   -0.7823    5.2910 H   0  0  0  0  0  0  0  0  0  0  0  0
   -3.2004   -3.8077    5.8456 Si  0  0  0  0  0  4  0  0  0  0  0  0
   -2.7928   -4.7876    4.8423 H   0  0  0  0  0  0  0  0  0  0  0  0
   -4.6616   -3.5869    5.7385 H   0  0  0  0  0  0  0  0  0  0  0  0
    3.1791    0.3120    7.6691 Si  0  0  0  0  0  4  0  0  0  0  0  0
    3.6211   -0.8244    8.5254 H   0  0  0  0  0  0  0  0  0  0  0  0
    4.2996    0.8614    6.9131 H   0  0  0  0  0  0  0  0  0  0  0  0
    2.3797    1.8783    9.0763 Si  0  0  0  0  0  4  0  0  0  0  0  0
    2.2995    3.1643    8.3631 H   0  0  0  0  0  0  0  0  0  0  0  0
    3.2561    1.9548   10.2322 H   0  0  0  0  0  0  0  0  0  0  0  0
   -2.8328   -4.5655    7.9301 Si  0  0  0  0  0  4  0  0  0  0  0  0
   -3.8172   -5.5645    8.3080 H   0  0  0  0  0  0  0  0  0  0  0  0
   -3.0366   -3.3983    8.8340 H   0  0  0  0  0  0  0  0  0  0  0  0
    0.2934    1.3131    9.6746 Si  0  0  0  0  0  4  0  0  0  0  0  0
   -0.0976    1.9652   10.9328 H   0  0  0  0  0  0  0  0  0  0  0  0
   -0.6339    1.7523    8.6351 H   0  0  0  0  0  0  0  0  0  0  0  0
   -0.7555   -5.3071    8.1652 Si  0  0  0  0  0  4  0  0  0  0  0  0
   -0.8037   -6.6343    8.7954 H   0  0  0  0  0  0  0  0  0  0  0  0
    0.0147   -4.4119    9.0529 H   0  0  0  0  0  0  0  0  0  0  0  0
    0.3223   -5.4412    6.2327 Si  0  0  0  0  0  4  0  0  0  0  0  0
   -0.5589   -5.2572    5.0747 H   0  0  0  0  0  0  0  0  0  0  0  0
    1.0371   -6.7309    6.1171 H   0  0  0  0  0  0  0  0  0  0  0  0
    1.3707   -4.3927    6.1278 H   0  0  0  0  0  0  0  0  0  0  0  0
    0.2426   -0.9203    9.8686 Si  0  0  0  0  0  4  0  0  0  0  0  0
   -1.0477   -1.4514    9.3889 H   0  0  0  0  0  0  0  0  0  0  0  0
    0.4163   -1.3382   11.2678 H   0  0  0  0  0  0  0  0  0  0  0  0
    1.2829   -1.5399    9.0160 H   0  0  0  0  0  0  0  0  0  0  0  0
  1  2  1  0
  1  5  1  0
  2  3  1  0
  2  4  1  0
  2  8  1  0
  5  6  1  0
  5  7  1  0
  5 11  1  0
  8  9  1  0
  8 10  1  0
  8 17  1  0
 11 12  1  0
 11 13  1  0
 11 14  1  0
 14 15  1  0
 14 16  1  0
 14 23  1  0
 17 18  1  0
 17 19  1  0
 17 20  1  0
 20 21  1  0
 20 22  1  0
 20 26  1  0
 23 24  1  0
 23 25  1  0
 23 29  1  0
 26 27  1  0
 26 28  1  0
 26 36  1  0
 29 30  1  0
 29 31  1  0
 29 32  1  0
 32 33  1  0
 32 34  1  0
 32 35  1  0
 36 37  1  0
 36 38  1  0
 36 39  1  0
M  CHG  1   1   1
M  RAD  1   1   2
M  END
$$$$

     RDKit          3D

 39 38  0  0  0  0  0  0  0  0999 V2000
   -0.0142   -0.1265    3.2001 S   0  0  0  0  0  2  0  0  0  0  0  0
    0.0047    1.2502    4.7948 Si  0  0  0  0  0  4  0  0  0  0  0  0
   -1.3378    1.8523    4.9246 H   0  0  0  0  0  0  0  0  0  0  0  0
    0.9373    2.3585    4.4493 H   0  0  0  0  0  0  0  0  0  0  0  0
   -0.5605   -2.0882    3.7319 Si  0  0  0  0  0  4  0  0  0  0  0  0
   -0.8706   -2.8446    2.4843 H   0  0  0  0  0  0  0  0  0  0  0  0
    0.5281   -2.8149    4.3871 H   0  0  0  0  0  0  0  0  0  0  0  0
    0.6693    0.3840    6.7149 Si  0  0  0  0  0  4  0  0  0  0  0  0
    0.0319   -0.8769    7.0444 H   0  0  0  0  0  0  0  0  0  0  0  0
    2.1304    0.1189    6.6152 H   0  0  0  0  0  0  0  0  0  0  0  0
   -2.3534   -2.1925    5.0298 Si  0  0  0  0  0  4  0  0  0  0  0  0
   -2.0918   -1.7963    6.4082 H   0  0  0  0  0  0  0  0  0  0  0  0
   -2.7854   -3.6193    5.0764 H   0  0  0  0  0  0  0  0  0  0  0  0
   -4.0413   -0.9870    4.2520 Si  0  0  0  0  0  4  0  0  0  0  0  0
   -5.1453   -1.8491    3.7966 H   0  0  0  0  0  0  0  0  0  0  0  0
   -3.5913   -0.1998    3.0793 H   0  0  0  0  0  0  0  0  0  0  0  0
    0.2253    1.8360    8.3507 Si  0  0  0  0  0  4  0  0  0  0  0  0
   -0.4840    3.0102    7.8657 H   0  0  0  0  0  0  0  0  0  0  0  0
   -0.5758    1.1976    9.4254 H   0  0  0  0  0  0  0  0  0  0  0  0
    2.1741    2.4338    9.2996 Si  0  0  0  0  0  4  0  0  0  0  0  0
    2.0050    3.6141   10.1553 H   0  0  0  0  0  0  0  0  0  0  0  0
    3.1114    2.7191    8.1946 H   0  0  0  0  0  0  0  0  0  0  0  0
   -4.8300    0.4429    5.7544 Si  0  0  0  0  0  4  0  0  0  0  0  0
   -4.0814    1.7078    5.7659 H   0  0  0  0  0  0  0  0  0  0  0  0
   -6.2238    0.7518    5.4014 H   0  0  0  0  0  0  0  0  0  0  0  0
    2.8756    0.6749   10.5081 Si  0  0  0  0  0  4  0  0  0  0  0  0
    3.0615   -0.4479    9.5728 H   0  0  0  0  0  0  0  0  0  0  0  0
    4.1108    0.9785   11.2160 H   0  0  0  0  0  0  0  0  0  0  0  0
   -4.8029   -0.3898    7.8115 Si  0  0  0  0  0  4  0  0  0  0  0  0
   -3.5508   -0.0068    8.5063 H   0  0  0  0  0  0  0  0  0  0  0  0
   -4.9466   -1.8386    7.8455 H   0  0  0  0  0  0  0  0  0  0  0  0
   -6.4866    0.5899    8.9487 Si  0  0  0  0  0  4  0  0  0  0  0  0
   -7.7400    0.1460    8.3020 H   0  0  0  0  0  0  0  0  0  0  0  0
   -6.4337    0.2649   10.3615 H   0  0  0  0  0  0  0  0  0  0  0  0
   -6.3716    2.0417    8.6893 H   0  0  0  0  0  0  0  0  0  0  0  0
    1.2146    0.1217   11.9021 Si  0  0  0  0  0  4  0  0  0  0  0  0
    1.7309   -0.9013   12.8125 H   0  0  0  0  0  0  0  0  0  0  0  0
    0.8242    1.3079   12.6616 H   0  0  0  0  0  0  0  0  0  0  0  0
    0.0948   -0.3868   11.1061 H   0  0  0  0  0  0  0  0  0  0  0  0
  1  2  1  0
  1  5  1  0
  2  3  1  0
  2  4  1  0
  2  8  1  0
  5  6  1  0
  5  7  1  0
  5 11  1  0
  8  9  1  0
  8 10  1  0
  8 17  1  0
 11 12  1  0
 11 13  1  0
 11 14  1  0
 14 15  1  0
 14 16  1  0
 14 23  1  0
 17 18  1  0
 17 19  1  0
 17 20  1  0
 20 21  1  0
 20 22  1  0
 20 26  1  0
 23 24  1  0
 23 25  1  0
 23 29  1  0
 26 27  1  0
 26 28  1  0
 26 36  1  0
 29 30  1  0
 29 31  1  0
 29 32  1  0
 32 33  1  0
 32 34  1  0
 32 35  1  0
 36 37  1  0
 36 38  1  0
 36 39  1  0
M  CHG  1   1   1
M  RAD  1   1   2
M  END
$$$$

     RDKit          3D

 39 38  0  0  0  0  0  0  0  0999 V2000
   -0.0142   -0.1265    3.2001 S   0  0  0  0  0  2  0  0  0  0  0  0
   -2.0395   -0.8556    3.2376 Si  0  0  0  0  0  4  0  0  0  0  0  0
   -2.9407    0.1762    2.7366 H   0  0  0  0  0  0  0  0  0  0  0  0
   -2.1175   -2.0206    2.3347 H   0  0  0  0  0  0  0  0  0  0  0  0
    1.2124   -1.2304    4.5889 Si  0  0  0  0  0  4  0  0  0  0  0  0
    2.5401   -1.4235    3.9766 H   0  0  0  0  0  0  0  0  0  0  0  0
    0.5773   -2.5039    4.9216 H   0  0  0  0  0  0  0  0  0  0  0  0
   -2.6097   -1.4477    5.3304 Si  0  0  0  0  0  4  0  0  0  0  0  0
   -3.4588   -2.6224    5.2911 H   0  0  0  0  0  0  0  0  0  0  0  0
   -1.3565   -1.8233    6.0127 H   0  0  0  0  0  0  0  0  0  0  0  0
    1.4904   -0.0069    6.4253 Si  0  0  0  0  0  4  0  0  0  0  0  0
    2.6710    0.8519    6.3537 H   0  0  0  0  0  0  0  0  0  0  0  0
    0.3174    0.8792    6.5517 H   0  0  0  0  0  0  0  0  0  0  0  0
    1.6626   -1.2706    8.2472 Si  0  0  0  0  0  4  0  0  0  0  0  0
    2.7145   -0.7432    9.1456 H   0  0  0  0  0  0  0  0  0  0  0  0
    2.0175   -2.6513    7.9385 H   0  0  0  0  0  0  0  0  0  0  0  0
   -3.6060    0.2730    6.3805 Si  0  0  0  0  0  4  0  0  0  0  0  0
   -2.8973    0.5831    7.6209 H   0  0  0  0  0  0  0  0  0  0  0  0
   -4.9752   -0.1843    6.7402 H   0  0  0  0  0  0  0  0  0  0  0  0
   -3.7682    1.9668    4.9907 Si  0  0  0  0  0  4  0  0  0  0  0  0
   -2.7226    1.8101    3.9385 H   0  0  0  0  0  0  0  0  0  0  0  0
   -5.0606    1.8724    4.2692 H   0  0  0  0  0  0  0  0  0  0  0  0
   -0.2709   -1.2068    9.3563 Si  0  0  0  0  0  4  0  0  0  0  0  0
   -1.3508   -1.4505    8.3838 H   0  0  0  0  0  0  0  0  0  0  0  0
   -0.3286   -2.2953   10.3513 H   0  0  0  0  0  0  0  0  0  0  0  0
   -3.5348    3.9400    5.9156 Si  0  0  0  0  0  4  0  0  0  0  0  0
   -2.2052    4.5255    5.5828 H   0  0  0  0  0  0  0  0  0  0  0  0
   -4.5245    4.8712    5.3014 H   0  0  0  0  0  0  0  0  0  0  0  0
   -0.6157    0.7838   10.2849 Si  0  0  0  0  0  4  0  0  0  0  0  0
   -0.2876    0.7662   11.7104 H   0  0  0  0  0  0  0  0  0  0  0  0
   -2.0493    1.1407   10.1554 H   0  0  0  0  0  0  0  0  0  0  0  0
    0.5572    2.3814    9.2599 Si  0  0  0  0  0  4  0  0  0  0  0  0
    1.9330    1.9338    9.0602 H   0  0  0  0  0  0  0  0  0  0  0  0
    0.5325    3.5868   10.1167 H   0  0  0  0  0  0  0  0  0  0  0  0
   -0.1042    2.7591    7.9974 H   0  0  0  0  0  0  0  0  0  0  0  0
   -3.7962    3.9773    8.0937 Si  0  0  0  0  0  4  0  0  0  0  0  0
   -4.2571    2.7229    8.6700 H   0  0  0  0  0  0  0  0  0  0  0  0
   -4.7790    5.0210    8.5043 H   0  0  0  0  0  0  0  0  0  0  0  0
   -2.5293    4.3549    8.7776 H   0  0  0  0  0  0  0  0  0  0  0  0
  1  2  1  0
  1  5  1  0
  2  3  1  0
  2  4  1  0
  2  8  1  0
  5  6  1  0
  5  7  1  0
  5 11  1  0
  8  9  1  0
  8 10  1  0
  8 17  1  0
 11 12  1  0
 11 13  1  0
 11 14  1  0
 14 15  1  0
 14 16  1  0
 14 23  1  0
 17 18  1  0
 17 19  1  0
 17 20  1  0
 20 21  1  0
 20 22  1  0
 20 26  1  0
 23 24  1  0
 23 25  1  0
 23 29  1  0
 26 27  1  0
 26 28  1  0
 26 36  1  0
 29 30  1  0
 29 31  1  0
 29 32  1  0
 32 33  1  0
 32 34  1  0
 32 35  1  0
 36 37  1  0
 36 38  1  0
 36 39  1  0
M  CHG  1   1   1
M  RAD  1   1   2
M  END
$$$$

     RDKit          3D

 39 38  0  0  0  0  0  0  0  0999 V2000
   -0.0142   -0.1265    3.2001 S   0  0  0  0  0  2  0  0  0  0  0  0
   -0.0445    1.8863    3.8310 Si  0  0  0  0  0  4  0  0  0  0  0  0
    1.0453    2.6144    3.1217 H   0  0  0  0  0  0  0  0  0  0  0  0
   -1.2989    2.5175    3.3951 H   0  0  0  0  0  0  0  0  0  0  0  0
    0.4782   -1.5133    4.7078 Si  0  0  0  0  0  4  0  0  0  0  0  0
    1.0301   -0.9366    5.9149 H   0  0  0  0  0  0  0  0  0  0  0  0
    1.4483   -2.5116    4.2051 H   0  0  0  0  0  0  0  0  0  0  0  0
    0.2203    2.1308    6.0155 Si  0  0  0  0  0  4  0  0  0  0  0  0
    0.2011    0.7857    6.6277 H   0  0  0  0  0  0  0  0  0  0  0  0
    1.5043    2.7624    6.3499 H   0  0  0  0  0  0  0  0  0  0  0  0
   -1.3790   -2.6684    5.2473 Si  0  0  0  0  0  4  0  0  0  0  0  0
   -2.4183   -1.7038    5.6174 H   0  0  0  0  0  0  0  0  0  0  0  0
   -1.7904   -3.4828    4.1047 H   0  0  0  0  0  0  0  0  0  0  0  0
   -0.9702   -4.0014    6.9690 Si  0  0  0  0  0  4  0  0  0  0  0  0
   -2.1328   -4.8958    7.1425 H   0  0  0  0  0  0  0  0  0  0  0  0
    0.2126   -4.8181    6.7152 H   0  0  0  0  0  0  0  0  0  0  0  0
   -1.4843    3.2678    6.9334 Si  0  0  0  0  0  4  0  0  0  0  0  0
   -2.0126    4.2769    6.0359 H   0  0  0  0  0  0  0  0  0  0  0  0
   -0.9571    3.8965    8.1633 H   0  0  0  0  0  0  0  0  0  0  0  0
   -3.0649    1.7992    7.5609 Si  0  0  0  0  0  4  0  0  0  0  0  0
   -4.0088    1.6054    6.4645 H   0  0  0  0  0  0  0  0  0  0  0  0
   -2.3594    0.5254    7.8419 H   0  0  0  0  0  0  0  0  0  0  0  0
   -0.6976   -2.8678    8.8556 Si  0  0  0  0  0  4  0  0  0  0  0  0
   -0.9812   -3.7442   10.0049 H   0  0  0  0  0  0  0  0  0  0  0  0
   -1.6477   -1.7417    8.8907 H   0  0  0  0  0  0  0  0  0  0  0  0
   -4.0681    2.4394    9.4321 Si  0  0  0  0  0  4  0  0  0  0  0  0
   -3.6298    3.7785    9.8625 H   0  0  0  0  0  0  0  0  0  0  0  0
   -5.5263    2.4370    9.1855 H   0  0  0  0  0  0  0  0  0  0  0  0
    1.3733   -2.0815    9.0732 Si  0  0  0  0  0  4  0  0  0  0  0  0
    2.1119   -2.8223   10.1222 H   0  0  0  0  0  0  0  0  0  0  0  0
    2.1185   -2.2786    7.8068 H   0  0  0  0  0  0  0  0  0  0  0  0
    1.3455    0.0836    9.6423 Si  0  0  0  0  0  4  0  0  0  0  0  0
    1.9909    0.3221   10.9257 H   0  0  0  0  0  0  0  0  0  0  0  0
    1.9939    0.8918    8.5829 H   0  0  0  0  0  0  0  0  0  0  0  0
   -0.0746    0.5268    9.6632 H   0  0  0  0  0  0  0  0  0  0  0  0
   -3.6165    1.0287   11.1179 Si  0  0  0  0  0  4  0  0  0  0  0  0
   -4.4555    1.4214   12.2555 H   0  0  0  0  0  0  0  0  0  0  0  0
   -3.8735   -0.3658   10.6979 H   0  0  0  0  0  0  0  0  0  0  0  0
   -2.1895    1.1647   11.4747 H   0  0  0  0  0  0  0  0  0  0  0  0
  1  2  1  0
  1  5  1  0
  2  3  1  0
  2  4  1  0
  2  8  1  0
  5  6  1  0
  5  7  1  0
  5 11  1  0
  8  9  1  0
  8 10  1  0
  8 17  1  0
 11 12  1  0
 11 13  1  0
 11 14  1  0
 14 15  1  0
 14 16  1  0
 14 23  1  0
 17 18  1  0
 17 19  1  0
 17 20  1  0
 20 21  1  0
 20 22  1  0
 20 26  1  0
 23 24  1  0
 23 25  1  0
 23 29  1  0
 26 27  1  0
 26 28  1  0
 26 36  1  0
 29 30  1  0
 29 31  1  0
 29 32  1  0
 32 33  1  0
 32 34  1  0
 32 35  1  0
 36 37  1  0
 36 38  1  0
 36 39  1  0
M  CHG  1   1   1
M  RAD  1   1   2
M  END
$$$$

     RDKit          3D

 39 38  0  0  0  0  0  0  0  0999 V2000
   -0.0142   -0.1265    3.2001 S   0  0  0  0  0  2  0  0  0  0  0  0
   -1.2101    1.4926    3.8314 Si  0  0  0  0  0  4  0  0  0  0  0  0
   -0.7425    2.7205    3.1281 H   0  0  0  0  0  0  0  0  0  0  0  0
   -2.5961    1.2797    3.3889 H   0  0  0  0  0  0  0  0  0  0  0  0
    1.1856   -0.9748    4.7101 Si  0  0  0  0  0  4  0  0  0  0  0  0
    1.2950   -0.1889    5.9203 H   0  0  0  0  0  0  0  0  0  0  0  0
    2.5571   -1.2227    4.2124 H   0  0  0  0  0  0  0  0  0  0  0  0
   -1.1458    1.8381    6.0174 Si  0  0  0  0  0  4  0  0  0  0  0  0
   -0.3830    0.7297    6.6291 H   0  0  0  0  0  0  0  0  0  0  0  0
   -0.4685    3.0967    6.3588 H   0  0  0  0  0  0  0  0  0  0  0  0
    0.3418   -2.9953    5.2392 Si  0  0  0  0  0  4  0  0  0  0  0  0
   -1.0660   -2.8146    5.6040 H   0  0  0  0  0  0  0  0  0  0  0  0
    0.4845   -3.8934    4.0943 H   0  0  0  0  0  0  0  0  0  0  0  0
    1.4413   -3.8491    6.9628 Si  0  0  0  0  0  4  0  0  0  0  0  0
    1.0132   -5.2528    7.1297 H   0  0  0  0  0  0  0  0  0  0  0  0
    2.8795   -3.8265    6.7151 H   0  0  0  0  0  0  0  0  0  0  0  0
   -3.1976    1.7711    6.9263 Si  0  0  0  0  0  4  0  0  0  0  0  0
   -4.2098    2.2890    6.0263 H   0  0  0  0  0  0  0  0  0  0  0  0
   -3.1386    2.5849    8.1592 H   0  0  0  0  0  0  0  0  0  0  0  0
   -3.6345   -0.3444    7.5449 Si  0  0  0  0  0  4  0  0  0  0  0  0
   -4.2859   -1.0465    6.4434 H   0  0  0  0  0  0  0  0  0  0  0  0
   -2.3217   -0.9728    7.8294 H   0  0  0  0  0  0  0  0  0  0  0  0
    0.9970   -2.7741    8.8511 Si  0  0  0  0  0  4  0  0  0  0  0  0
    1.2702   -3.6562    9.9986 H   0  0  0  0  0  0  0  0  0  0  0  0
   -0.4304   -2.4091    8.8814 H   0  0  0  0  0  0  0  0  0  0  0  0
   -4.8309   -0.4118    9.4108 Si  0  0  0  0  0  4  0  0  0  0  0  0
   -5.2533    0.9315    9.8440 H   0  0  0  0  0  0  0  0  0  0  0  0
   -6.0157   -1.2596    9.1564 H   0  0  0  0  0  0  0  0  0  0  0  0
    2.2257   -0.9324    9.0800 Si  0  0  0  0  0  4  0  0  0  0  0  0
    3.2527   -1.1102   10.1328 H   0  0  0  0  0  0  0  0  0  0  0  0
    2.9522   -0.6559    7.8177 H   0  0  0  0  0  0  0  0  0  0  0  0
    0.9436    0.8124    9.6495 Si  0  0  0  0  0  4  0  0  0  0  0  0
    1.3252    1.3771   10.9365 H   0  0  0  0  0  0  0  0  0  0  0  0
    1.0068    1.8505    8.5939 H   0  0  0  0  0  0  0  0  0  0  0  0
   -0.4700    0.3487    9.6630 H   0  0  0  0  0  0  0  0  0  0  0  0
   -3.6513   -1.3039   11.0987 Si  0  0  0  0  0  4  0  0  0  0  0  0
   -4.5672   -1.4750   12.2319 H   0  0  0  0  0  0  0  0  0  0  0  0
   -3.0491   -2.5871   10.6769 H   0  0  0  0  0  0  0  0  0  0  0  0
   -2.5699   -0.3658   11.4632 H   0  0  0  0  0  0  0  0  0  0  0  0
  1  2  1  0
  1  5  1  0
  2  3  1  0
  2  4  1  0
  2  8  1  0
  5  6  1  0
  5  7  1  0
  5 11  1  0
  8  9  1  0
  8 10  1  0
  8 17  1  0
 11 12  1  0
 11 13  1  0
 11 14  1  0
 14 15  1  0
 14 16  1  0
 14 23  1  0
 17 18  1  0
 17 19  1  0
 17 20  1  0
 20 21  1  0
 20 22  1  0
 20 26  1  0
 23 24  1  0
 23 25  1  0
 23 29  1  0
 26 27  1  0
 26 28  1  0
 26 36  1  0
 29 30  1  0
 29 31  1  0
 29 32  1  0
 32 33  1  0
 32 34  1  0
 32 35  1  0
 36 37  1  0
 36 38  1  0
 36 39  1  0
M  CHG  1   1   1
M  RAD  1   1   2
M  END
$$$$

     RDKit          3D

 39 38  0  0  0  0  0  0  0  0999 V2000
   -0.0142   -0.1265    3.2001 S   0  0  0  0  0  2  0  0  0  0  0  0
   -0.9763   -1.7816    4.2167 Si  0  0  0  0  0  4  0  0  0  0  0  0
   -0.0919   -2.9637    4.1831 H   0  0  0  0  0  0  0  0  0  0  0  0
   -2.2780   -2.0576    3.6228 H   0  0  0  0  0  0  0  0  0  0  0  0
   -0.9463    1.7083    3.8534 Si  0  0  0  0  0  4  0  0  0  0  0  0
   -0.9236    2.6952    2.7583 H   0  0  0  0  0  0  0  0  0  0  0  0
   -2.3327    1.3794    4.1993 H   0  0  0  0  0  0  0  0  0  0  0  0
   -1.2580   -1.1494    6.3480 Si  0  0  0  0  0  4  0  0  0  0  0  0
    0.0294   -0.5742    6.7932 H   0  0  0  0  0  0  0  0  0  0  0  0
   -2.3140   -0.1227    6.3528 H   0  0  0  0  0  0  0  0  0  0  0  0
    0.1367    2.5928    5.5817 Si  0  0  0  0  0  4  0  0  0  0  0  0
   -0.0642    1.8243    6.8080 H   0  0  0  0  0  0  0  0  0  0  0  0
    1.5739    2.6223    5.3045 H   0  0  0  0  0  0  0  0  0  0  0  0
   -0.6449    4.6665    5.9078 Si  0  0  0  0  0  4  0  0  0  0  0  0
   -1.6613    5.0186    4.9200 H   0  0  0  0  0  0  0  0  0  0  0  0
    0.4844    5.6194    5.7987 H   0  0  0  0  0  0  0  0  0  0  0  0
   -1.7423   -2.8652    7.6581 Si  0  0  0  0  0  4  0  0  0  0  0  0
   -2.8779   -2.4568    8.5321 H   0  0  0  0  0  0  0  0  0  0  0  0
   -2.0781   -4.0609    6.8922 H   0  0  0  0  0  0  0  0  0  0  0  0
   -0.0223   -3.3148    9.0408 Si  0  0  0  0  0  4  0  0  0  0  0  0
    0.9883   -4.0954    8.3071 H   0  0  0  0  0  0  0  0  0  0  0  0
   -0.5303   -4.0368   10.1944 H   0  0  0  0  0  0  0  0  0  0  0  0
   -1.4330    4.8668    8.0038 Si  0  0  0  0  0  4  0  0  0  0  0  0
   -1.5290    6.2614    8.3989 H   0  0  0  0  0  0  0  0  0  0  0  0
   -0.4116    4.2392    8.8891 H   0  0  0  0  0  0  0  0  0  0  0  0
    0.9376   -1.3817    9.6503 Si  0  0  0  0  0  4  0  0  0  0  0  0
    1.6997   -1.5328   10.8983 H   0  0  0  0  0  0  0  0  0  0  0  0
    1.8678   -0.9633    8.6048 H   0  0  0  0  0  0  0  0  0  0  0  0
   -3.3588    3.7936    8.2486 Si  0  0  0  0  0  4  0  0  0  0  0  0
   -4.3164    4.6987    8.9002 H   0  0  0  0  0  0  0  0  0  0  0  0
   -3.1849    2.6140    9.1210 H   0  0  0  0  0  0  0  0  0  0  0  0
   -4.1930    3.0946    6.3175 Si  0  0  0  0  0  4  0  0  0  0  0  0
   -3.4862    3.6482    5.1576 H   0  0  0  0  0  0  0  0  0  0  0  0
   -5.6349    3.4105    6.2218 H   0  0  0  0  0  0  0  0  0  0  0  0
   -4.0990    1.6163    6.1946 H   0  0  0  0  0  0  0  0  0  0  0  0
   -0.7040    0.1286    9.8802 Si  0  0  0  0  0  4  0  0  0  0  0  0
   -0.2564    1.4538    9.4105 H   0  0  0  0  0  0  0  0  0  0  0  0
   -1.1165    0.2581   11.2858 H   0  0  0  0  0  0  0  0  0  0  0  0
   -1.8658   -0.2339    9.0366 H   0  0  0  0  0  0  0  0  0  0  0  0
  1  2  1  0
  1  5  1  0
  2  3  1  0
  2  4  1  0
  2  8  1  0
  5  6  1  0
  5  7  1  0
  5 11  1  0
  8  9  1  0
  8 10  1  0
  8 17  1  0
 11 12  1  0
 11 13  1  0
 11 14  1  0
 14 15  1  0
 14 16  1  0
 14 23  1  0
 17 18  1  0
 17 19  1  0
 17 20  1  0
 20 21  1  0
 20 22  1  0
 20 26  1  0
 23 24  1  0
 23 25  1  0
 23 29  1  0
 26 27  1  0
 26 28  1  0
 26 36  1  0
 29 30  1  0
 29 31  1  0
 29 32  1  0
 32 33  1  0
 32 34  1  0
 32 35  1  0
 36 37  1  0
 36 38  1  0
 36 39  1  0
M  CHG  1   1   1
M  RAD  1   1   2
M  END
$$$$
