
     RDKit          3D

 39 38  0  0  0  0  0  0  0  0999 V2000
   -0.2024    0.1295   -4.3308 S   0  0  0  0  0  2  0  0  0  0  0  0
   -0.0023    2.1896   -4.8996 Si  0  0  0  0  0  4  0  0  0  0  0  0
   -0.4107    3.0458   -3.7665 H   0  0  0  0  0  0  0  0  0  0  0  0
    1.3916    2.4482   -5.2178 H   0  0  0  0  0  0  0  0  0  0  0  0
   -2.1948   -0.5855   -4.6481 Si  0  0  0  0  0  4  0  0  0  0  0  0
   -2.6908   -1.1006   -3.3568 H   0  0  0  0  0  0  0  0  0  0  0  0
   -3.0971    0.4794   -5.1041 H   0  0  0  0  0  0  0  0  0  0  0  0
   -1.3082    2.6468   -6.6217 Si  0  0  0  0  0  4  0  0  0  0  0  0
   -2.2798    3.7112   -6.3051 H   0  0  0  0  0  0  0  0  0  0  0  0
   -2.0928    1.4535   -6.9796 H   0  0  0  0  0  0  0  0  0  0  0  0
   -2.1872   -2.2973   -6.0805 Si  0  0  0  0  0  4  0  0  0  0  0  0
   -0.7930   -2.7541   -6.2254 H   0  0  0  0  0  0  0  0  0  0  0  0
   -3.0083   -3.4125   -5.6171 H   0  0  0  0  0  0  0  0  0  0  0  0
   -2.9056   -1.6794   -8.0925 Si  0  0  0  0  0  4  0  0  0  0  0  0
   -2.1588   -0.5126   -8.5759 H   0  0  0  0  0  0  0  0  0  0  0  0
   -2.6164   -2.7855   -9.0268 H   0  0  0  0  0  0  0  0  0  0  0  0
   -0.1011    3.2003   -8.4457 Si  0  0  0  0  0  4  0  0  0  0  0  0
    1.2320    2.6059   -8.3930 H   0  0  0  0  0  0  0  0  0  0  0  0
    0.0956    4.6760   -8.3581 H   0  0  0  0  0  0  0  0  0  0  0  0
   -1.2341    2.6735  -10.2583 Si  0  0  0  0  0  4  0  0  0  0  0  0
   -1.6526    3.9259  -10.9509 H   0  0  0  0  0  0  0  0  0  0  0  0
   -2.5113    1.9970   -9.8920 H   0  0  0  0  0  0  0  0  0  0  0  0
   -5.0931   -1.2863   -8.0991 Si  0  0  0  0  0  4  0  0  0  0  0  0
   -5.7984   -2.4933   -8.5800 H   0  0  0  0  0  0  0  0  0  0  0  0
   -5.6143   -0.9983   -6.7545 H   0  0  0  0  0  0  0  0  0  0  0  0
   -0.1505    1.4111  -11.6774 Si  0  0  0  0  0  4  0  0  0  0  0  0
   -0.9038    0.1634  -11.9884 H   0  0  0  0  0  0  0  0  0  0  0  0
    0.0305    2.0900  -12.9852 H   0  0  0  0  0  0  0  0  0  0  0  0
   -5.5881    0.3868   -9.4797 Si  0  0  0  0  0  4  0  0  0  0  0  0
   -4.4469    0.6625  -10.3741 H   0  0  0  0  0  0  0  0  0  0  0  0
   -6.7264    0.0422  -10.3677 H   0  0  0  0  0  0  0  0  0  0  0  0
   -6.1332    2.2350   -8.3687 Si  0  0  0  0  0  4  0  0  0  0  0  0
   -6.5280    3.2507   -9.3433 H   0  0  0  0  0  0  0  0  0  0  0  0
   -7.2811    1.9445   -7.5044 H   0  0  0  0  0  0  0  0  0  0  0  0
   -5.0204    2.7069   -7.5376 H   0  0  0  0  0  0  0  0  0  0  0  0
    1.8674    0.7943  -10.9731 Si  0  0  0  0  0  4  0  0  0  0  0  0
    1.8014   -0.0835   -9.7982 H   0  0  0  0  0  0  0  0  0  0  0  0
    2.7630    1.9322  -10.7838 H   0  0  0  0  0  0  0  0  0  0  0  0
    2.4635   -0.0295  -12.0649 H   0  0  0  0  0  0  0  0  0  0  0  0
  1  2  1  0
  1  5  1  0
  2  3  1  0
  2  4  1  0
  2  8  1  0
  5  6  1  0
  5  7  1  0
  5 11  1  0
  8  9  1  0
  8 10  1  0
  8 17  1  0
 11 12  1  0
 11 13  1  0
 11 14  1  0
 14 15  1  0
 14 16  1  0
 14 23  1  0
 17 18  1  0
 17 19  1  0
 17 20  1  0
 20 21  1  0
 20 22  1  0
 20 26  1  0
 23 24  1  0
 23 25  1  0
 23 29  1  0
 26 27  1  0
 26 28  1  0
 26 36  1  0
 29 30  1  0
 29 31  1  0
 29 32  1  0
 32 33  1  0
 32 34  1  0
 32 35  1  0
 36 37  1  0
 36 38  1  0
 36 39  1  0
M  CHG  1   1   1
M  RAD  1   1   2
M  END
$$$$

     RDKit          3D

 39 38  0  0  0  0  0  0  0  0999 V2000
   -0.2024    0.1295   -4.3308 S   0  0  0  0  0  2  0  0  0  0  0  0
   -0.4891   -1.8898   -4.9997 Si  0  0  0  0  0  4  0  0  0  0  0  0
   -0.0079   -2.8180   -3.9553 H   0  0  0  0  0  0  0  0  0  0  0  0
   -1.9090   -2.1077   -5.2175 H   0  0  0  0  0  0  0  0  0  0  0  0
    1.7719    0.8315   -4.7678 Si  0  0  0  0  0  4  0  0  0  0  0  0
    2.3807    1.2614   -3.4937 H   0  0  0  0  0  0  0  0  0  0  0  0
    2.6129   -0.2181   -5.3570 H   0  0  0  0  0  0  0  0  0  0  0  0
    0.6642   -2.2639   -6.8464 Si  0  0  0  0  0  4  0  0  0  0  0  0
    1.6366   -3.3600   -6.6724 H   0  0  0  0  0  0  0  0  0  0  0  0
    1.4412   -1.0636   -7.1975 H   0  0  0  0  0  0  0  0  0  0  0  0
    1.6832    2.6253   -6.0932 Si  0  0  0  0  0  4  0  0  0  0  0  0
    0.2913    3.1112   -6.0971 H   0  0  0  0  0  0  0  0  0  0  0  0
    2.5612    3.6983   -5.6347 H   0  0  0  0  0  0  0  0  0  0  0  0
    2.2244    2.1171   -8.1897 Si  0  0  0  0  0  4  0  0  0  0  0  0
    1.4177    0.9926   -8.6772 H   0  0  0  0  0  0  0  0  0  0  0  0
    1.8830    3.2809   -9.0316 H   0  0  0  0  0  0  0  0  0  0  0  0
   -0.6970   -2.6895   -8.5947 Si  0  0  0  0  0  4  0  0  0  0  0  0
   -2.0093   -2.0790   -8.3989 H   0  0  0  0  0  0  0  0  0  0  0  0
   -0.9156   -4.1647   -8.5769 H   0  0  0  0  0  0  0  0  0  0  0  0
    0.2965   -2.0734  -10.4602 Si  0  0  0  0  0  4  0  0  0  0  0  0
    0.6325   -3.2888  -11.2561 H   0  0  0  0  0  0  0  0  0  0  0  0
    1.6123   -1.4396  -10.1608 H   0  0  0  0  0  0  0  0  0  0  0  0
    4.3959    1.6915   -8.3977 Si  0  0  0  0  0  4  0  0  0  0  0  0
    5.0842    2.9140   -8.8639 H   0  0  0  0  0  0  0  0  0  0  0  0
    5.0179    1.3162   -7.1191 H   0  0  0  0  0  0  0  0  0  0  0  0
   -0.8725   -0.7126  -11.7104 Si  0  0  0  0  0  4  0  0  0  0  0  0
   -0.1218    0.5397  -12.0092 H   0  0  0  0  0  0  0  0  0  0  0  0
   -1.1720   -1.3098  -13.0362 H   0  0  0  0  0  0  0  0  0  0  0  0
    4.7442    0.0960   -9.9088 Si  0  0  0  0  0  4  0  0  0  0  0  0
    3.5292   -0.1086  -10.7214 H   0  0  0  0  0  0  0  0  0  0  0  0
    5.8138    0.4752  -10.8653 H   0  0  0  0  0  0  0  0  0  0  0  0
    5.3399   -1.8230   -8.9550 Si  0  0  0  0  0  4  0  0  0  0  0  0
    5.6342   -2.7850  -10.0158 H   0  0  0  0  0  0  0  0  0  0  0  0
    6.5594   -1.6020   -8.1720 H   0  0  0  0  0  0  0  0  0  0  0  0
    4.2884   -2.3264   -8.0645 H   0  0  0  0  0  0  0  0  0  0  0  0
   -2.8143   -0.1078  -10.8091 Si  0  0  0  0  0  4  0  0  0  0  0  0
   -2.6360    0.6975   -9.5947 H   0  0  0  0  0  0  0  0  0  0  0  0
   -3.7144   -1.2411  -10.6135 H   0  0  0  0  0  0  0  0  0  0  0  0
   -3.4798    0.7883  -11.7989 H   0  0  0  0  0  0  0  0  0  0  0  0
  1  2  1  0
  1  5  1  0
  2  3  1  0
  2  4  1  0
  2  8  1  0
  5  6  1  0
  5  7  1  0
  5 11  1  0
  8  9  1  0
  8 10  1  0
  8 17  1  0
 11 12  1  0
 11 13  1  0
 11 14  1  0
 14 15  1  0
 14 16  1  0
 14 23  1  0
 17 18  1  0
 17 19  1  0
 17 20  1  0
 20 21  1  0
 20 22  1  0
 20 26  1  0
 23 24  1  0
 23 25  1  0
 23 29  1  0
 26 27  1  0
 26 28  1  0
 26 36  1  0
 29 30  1  0
 29 31  1  0
 29 32  1  0
 32 33  1  0
 32 34  1  0
 32 35  1  0
 36 37  1  0
 36 38  1  0
 36 39  1  0
M  CHG  1   1   1
M  RAD  1   1   2
M  END
$$$$

     RDKit          3D

 39 38  0  0  0  0  0  0  0  0999 V2000
   -0.2024    0.1295   -4.3308 S   0  0  0  0  0  2  0  0  0  0  0  0
    0.7566   -1.7104   -4.7572 Si  0  0  0  0  0  4  0  0  0  0  0  0
    0.8426   -2.5015   -3.5011 H   0  0  0  0  0  0  0  0  0  0  0  0
    2.1136   -1.5685   -5.2601 H   0  0  0  0  0  0  0  0  0  0  0  0
    0.6617    1.7760   -5.3804 Si  0  0  0  0  0  4  0  0  0  0  0  0
    2.0898    1.9446   -5.0780 H   0  0  0  0  0  0  0  0  0  0  0  0
   -0.0095    3.0091   -4.8839 H   0  0  0  0  0  0  0  0  0  0  0  0
   -0.5440   -2.8820   -6.1559 Si  0  0  0  0  0  4  0  0  0  0  0  0
   -1.6696   -3.4482   -5.3731 H   0  0  0  0  0  0  0  0  0  0  0  0
   -1.0595   -1.9462   -7.1556 H   0  0  0  0  0  0  0  0  0  0  0  0
    0.2751    1.6662   -7.5710 Si  0  0  0  0  0  4  0  0  0  0  0  0
   -1.1703    1.5208   -7.7646 H   0  0  0  0  0  0  0  0  0  0  0  0
    0.6461    2.9853   -8.1453 H   0  0  0  0  0  0  0  0  0  0  0  0
    1.4304    0.0458   -8.5408 Si  0  0  0  0  0  4  0  0  0  0  0  0
    0.5890   -0.5656   -9.5788 H   0  0  0  0  0  0  0  0  0  0  0  0
    1.8000   -0.9735   -7.5647 H   0  0  0  0  0  0  0  0  0  0  0  0
    0.5735   -4.5520   -7.0980 Si  0  0  0  0  0  4  0  0  0  0  0  0
    2.0069   -4.2588   -7.1274 H   0  0  0  0  0  0  0  0  0  0  0  0
    0.3955   -5.7546   -6.2504 H   0  0  0  0  0  0  0  0  0  0  0  0
   -0.2217   -5.0455   -9.1186 Si  0  0  0  0  0  4  0  0  0  0  0  0
   -1.6788   -4.8906   -9.1186 H   0  0  0  0  0  0  0  0  0  0  0  0
    0.0654   -6.4545   -9.4520 H   0  0  0  0  0  0  0  0  0  0  0  0
    3.3058    0.8440   -9.4798 Si  0  0  0  0  0  4  0  0  0  0  0  0
    3.7125    2.0453   -8.7583 H   0  0  0  0  0  0  0  0  0  0  0  0
    2.9980    1.1182  -10.8903 H   0  0  0  0  0  0  0  0  0  0  0  0
    0.6535   -3.7490  -10.6964 Si  0  0  0  0  0  4  0  0  0  0  0  0
    1.2933   -4.5680  -11.7501 H   0  0  0  0  0  0  0  0  0  0  0  0
    1.6654   -2.8324  -10.1832 H   0  0  0  0  0  0  0  0  0  0  0  0
    4.8689   -0.7647   -9.3535 Si  0  0  0  0  0  4  0  0  0  0  0  0
    5.9040   -0.5392  -10.3587 H   0  0  0  0  0  0  0  0  0  0  0  0
    4.1670   -2.0492   -9.5452 H   0  0  0  0  0  0  0  0  0  0  0  0
    5.7323   -0.7312   -7.2833 Si  0  0  0  0  0  4  0  0  0  0  0  0
    4.7863   -0.0451   -6.3826 H   0  0  0  0  0  0  0  0  0  0  0  0
    6.9944    0.0192   -7.3331 H   0  0  0  0  0  0  0  0  0  0  0  0
    5.9152   -2.0921   -6.7728 H   0  0  0  0  0  0  0  0  0  0  0  0
   -0.9673   -2.5634  -11.6966 Si  0  0  0  0  0  4  0  0  0  0  0  0
   -1.6221   -1.6948  -10.6900 H   0  0  0  0  0  0  0  0  0  0  0  0
   -0.3105   -1.6492  -12.6574 H   0  0  0  0  0  0  0  0  0  0  0  0
   -1.9257   -3.4286  -12.3682 H   0  0  0  0  0  0  0  0  0  0  0  0
  1  2  1  0
  1  5  1  0
  2  3  1  0
  2  4  1  0
  2  8  1  0
  5  6  1  0
  5  7  1  0
  5 11  1  0
  8  9  1  0
  8 10  1  0
  8 17  1  0
 11 12  1  0
 11 13  1  0
 11 14  1  0
 14 15  1  0
 14 16  1  0
 14 23  1  0
 17 18  1  0
 17 19  1  0
 17 20  1  0
 20 21  1  0
 20 22  1  0
 20 26  1  0
 23 24  1  0
 23 25  1  0
 23 29  1  0
 26 27  1  0
 26 28  1  0
 26 36  1  0
 29 30  1  0
 29 31  1  0
 29 32  1  0
 32 33  1  0
 32 34  1  0
 32 35  1  0
 36 37  1  0
 36 38  1  0
 36 39  1  0
M  CHG  1   1   1
M  RAD  1   1   2
M  END
$$$$

     RDKit          3D

 39 38  0  0  0  0  0  0  0  0999 V2000
   -0.2024    0.1295   -4.3308 S   0  0  0  0  0  2  0  0  0  0  0  0
   -1.3284   -1.3729   -5.4136 Si  0  0  0  0  0  4  0  0  0  0  0  0
   -1.0113   -2.6808   -4.8591 H   0  0  0  0  0  0  0  0  0  0  0  0
   -2.7597   -1.0735   -5.1393 H   0  0  0  0  0  0  0  0  0  0  0  0
   -0.6137    2.0753   -5.1556 Si  0  0  0  0  0  4  0  0  0  0  0  0
   -0.6031    3.0803   -4.0659 H   0  0  0  0  0  0  0  0  0  0  0  0
   -1.8857    2.0679   -5.8792 H   0  0  0  0  0  0  0  0  0  0  0  0
   -0.9337   -1.2228   -7.5887 Si  0  0  0  0  0  4  0  0  0  0  0  0
   -2.1240   -1.4526   -8.4042 H   0  0  0  0  0  0  0  0  0  0  0  0
   -0.4844    0.1676   -7.8698 H   0  0  0  0  0  0  0  0  0  0  0  0
    1.0463    2.5996   -6.5701 Si  0  0  0  0  0  4  0  0  0  0  0  0
    2.0572    3.4297   -5.8701 H   0  0  0  0  0  0  0  0  0  0  0  0
    1.7222    1.3704   -6.9772 H   0  0  0  0  0  0  0  0  0  0  0  0
    0.2801    3.7475   -8.3137 Si  0  0  0  0  0  4  0  0  0  0  0  0
    1.2499    3.6610   -9.4260 H   0  0  0  0  0  0  0  0  0  0  0  0
    0.1313    5.1562   -7.9038 H   0  0  0  0  0  0  0  0  0  0  0  0
    0.7175   -2.6010   -8.2263 Si  0  0  0  0  0  4  0  0  0  0  0  0
    1.1334   -3.3652   -7.0279 H   0  0  0  0  0  0  0  0  0  0  0  0
    0.2208   -3.5622   -9.2121 H   0  0  0  0  0  0  0  0  0  0  0  0
    2.4253   -1.4632   -9.0931 Si  0  0  0  0  0  4  0  0  0  0  0  0
    3.6882   -1.7435   -8.4020 H   0  0  0  0  0  0  0  0  0  0  0  0
    2.1418   -0.0231   -8.8851 H   0  0  0  0  0  0  0  0  0  0  0  0
   -1.7220    3.0235   -8.9698 Si  0  0  0  0  0  4  0  0  0  0  0  0
   -2.6330    4.1370   -9.2484 H   0  0  0  0  0  0  0  0  0  0  0  0
   -2.3433    2.1415   -7.9552 H   0  0  0  0  0  0  0  0  0  0  0  0
    2.5898   -1.7838  -11.2975 Si  0  0  0  0  0  4  0  0  0  0  0  0
    3.6985   -2.7084  -11.5476 H   0  0  0  0  0  0  0  0  0  0  0  0
    1.3445   -2.3079  -11.8435 H   0  0  0  0  0  0  0  0  0  0  0  0
   -1.4384    1.8429  -10.8550 Si  0  0  0  0  0  4  0  0  0  0  0  0
   -1.3519    2.7483  -12.0134 H   0  0  0  0  0  0  0  0  0  0  0  0
   -0.1483    1.1373  -10.7645 H   0  0  0  0  0  0  0  0  0  0  0  0
   -3.1141    0.3841  -11.1242 Si  0  0  0  0  0  4  0  0  0  0  0  0
   -4.2785    0.7549  -10.2884 H   0  0  0  0  0  0  0  0  0  0  0  0
   -2.6615   -0.9704  -10.7707 H   0  0  0  0  0  0  0  0  0  0  0  0
   -3.4825    0.3889  -12.5412 H   0  0  0  0  0  0  0  0  0  0  0  0
    3.0089    0.1782  -12.3170 Si  0  0  0  0  0  4  0  0  0  0  0  0
    3.0592    1.2459  -11.2893 H   0  0  0  0  0  0  0  0  0  0  0  0
    4.3039    0.1037  -12.9956 H   0  0  0  0  0  0  0  0  0  0  0  0
    1.9309    0.5372  -13.2393 H   0  0  0  0  0  0  0  0  0  0  0  0
  1  2  1  0
  1  5  1  0
  2  3  1  0
  2  4  1  0
  2  8  1  0
  5  6  1  0
  5  7  1  0
  5 11  1  0
  8  9  1  0
  8 10  1  0
  8 17  1  0
 11 12  1  0
 11 13  1  0
 11 14  1  0
 14 15  1  0
 14 16  1  0
 14 23  1  0
 17 18  1  0
 17 19  1  0
 17 20  1  0
 20 21  1  0
 20 22  1  0
 20 26  1  0
 23 24  1  0
 23 25  1  0
 23 29  1  0
 26 27  1  0
 26 28  1  0
 26 36  1  0
 29 30  1  0
 29 31  1  0
 29 32  1  0
 32 33  1  0
 32 34  1  0
 32 35  1  0
 36 37  1  0
 36 38  1  0
 36 39  1  0
M  CHG  1   1   1
M  RAD  1   1   2
M  END
$$$$

     RDKit          3D

 39 38  0  0  0  0  0  0  0  0999 V2000
   -0.2024    0.1295   -4.3308 S   0  0  0  0  0  2  0  0  0  0  0  0
   -1.5929   -1.1468   -5.3962 Si  0  0  0  0  0  4  0  0  0  0  0  0
   -1.5192   -2.4868   -4.8327 H   0  0  0  0  0  0  0  0  0  0  0  0
   -2.9426   -0.5865   -5.1175 H   0  0  0  0  0  0  0  0  0  0  0  0
   -0.2526    2.1120   -5.1692 Si  0  0  0  0  0  4  0  0  0  0  0  0
   -0.0500    3.1054   -4.0877 H   0  0  0  0  0  0  0  0  0  0  0  0
   -1.5085    2.3344   -5.8868 H   0  0  0  0  0  0  0  0  0  0  0  0
   -1.1906   -1.0874   -7.5742 Si  0  0  0  0  0  4  0  0  0  0  0  0
   -2.4078   -1.0993   -8.3823 H   0  0  0  0  0  0  0  0  0  0  0  0
   -0.4942    0.1942   -7.8686 H   0  0  0  0  0  0  0  0  0  0  0  0
    1.4669    2.3109   -6.5957 Si  0  0  0  0  0  4  0  0  0  0  0  0
    2.6179    2.9451   -5.9072 H   0  0  0  0  0  0  0  0  0  0  0  0
    1.9018    0.9753   -6.9962 H   0  0  0  0  0  0  0  0  0  0  0  0
    0.9150    3.5683   -8.3448 Si  0  0  0  0  0  4  0  0  0  0  0  0
    1.8453    3.2965   -9.4610 H   0  0  0  0  0  0  0  0  0  0  0  0
    1.0313    4.9831   -7.9455 H   0  0  0  0  0  0  0  0  0  0  0  0
    0.1739   -2.7511   -8.2086 Si  0  0  0  0  0  4  0  0  0  0  0  0
    0.4490   -3.5705   -7.0061 H   0  0  0  0  0  0  0  0  0  0  0  0
   -0.4976   -3.6110   -9.1843 H   0  0  0  0  0  0  0  0  0  0  0  0
    2.0571   -1.9542   -9.0925 Si  0  0  0  0  0  4  0  0  0  0  0  0
    3.2507   -2.4579   -8.4052 H   0  0  0  0  0  0  0  0  0  0  0  0
    2.0454   -0.4850   -8.8947 H   0  0  0  0  0  0  0  0  0  0  0  0
   -1.1902    3.2217   -8.9856 Si  0  0  0  0  0  4  0  0  0  0  0  0
   -1.8819    4.4822   -9.2688 H   0  0  0  0  0  0  0  0  0  0  0  0
   -1.9575    2.4766   -7.9611 H   0  0  0  0  0  0  0  0  0  0  0  0
    2.1461   -2.3150  -11.2951 Si  0  0  0  0  0  4  0  0  0  0  0  0
    3.0635   -3.4302  -11.5430 H   0  0  0  0  0  0  0  0  0  0  0  0
    0.8221   -2.6042  -11.8309 H   0  0  0  0  0  0  0  0  0  0  0  0
   -1.1410    1.9958  -10.8626 Si  0  0  0  0  0  4  0  0  0  0  0  0
   -0.8960    2.8616  -12.0286 H   0  0  0  0  0  0  0  0  0  0  0  0
   -0.0027    1.0649  -10.7725 H   0  0  0  0  0  0  0  0  0  0  0  0
   -3.0586    0.8696  -11.1122 Si  0  0  0  0  0  4  0  0  0  0  0  0
   -4.1295    1.4548  -10.2739 H   0  0  0  0  0  0  0  0  0  0  0  0
   -2.8616   -0.5427  -10.7500 H   0  0  0  0  0  0  0  0  0  0  0  0
   -3.4286    0.9323  -12.5274 H   0  0  0  0  0  0  0  0  0  0  0  0
    2.9137   -0.4713  -12.3322 Si  0  0  0  0  0  4  0  0  0  0  0  0
    3.1665    0.5759  -11.3133 H   0  0  0  0  0  0  0  0  0  0  0  0
    4.1686   -0.7883  -13.0164 H   0  0  0  0  0  0  0  0  0  0  0  0
    1.9149    0.0740  -13.2523 H   0  0  0  0  0  0  0  0  0  0  0  0
  1  2  1  0
  1  5  1  0
  2  3  1  0
  2  4  1  0
  2  8  1  0
  5  6  1  0
  5  7  1  0
  5 11  1  0
  8  9  1  0
  8 10  1  0
  8 17  1  0
 11 12  1  0
 11 13  1  0
 11 14  1  0
 14 15  1  0
 14 16  1  0
 14 23  1  0
 17 18  1  0
 17 19  1  0
 17 20  1  0
 20 21  1  0
 20 22  1  0
 20 26  1  0
 23 24  1  0
 23 25  1  0
 23 29  1  0
 26 27  1  0
 26 28  1  0
 26 36  1  0
 29 30  1  0
 29 31  1  0
 29 32  1  0
 32 33  1  0
 32 34  1  0
 32 35  1  0
 36 37  1  0
 36 38  1  0
 36 39  1  0
M  CHG  1   1   1
M  RAD  1   1   2
M  END
$$$$

     RDKit          3D

 39 38  0  0  0  0  0  0  0  0999 V2000
   -0.2024    0.1295   -4.3308 S   0  0  0  0  0  2  0  0  0  0  0  0
   -1.7238   -0.9968   -5.3865 Si  0  0  0  0  0  4  0  0  0  0  0  0
   -1.7905   -2.3347   -4.8172 H   0  0  0  0  0  0  0  0  0  0  0  0
   -3.0057   -0.2956   -5.1064 H   0  0  0  0  0  0  0  0  0  0  0  0
   -0.0453    2.1027   -5.1779 Si  0  0  0  0  0  4  0  0  0  0  0  0
    0.2650    3.0735   -4.1015 H   0  0  0  0  0  0  0  0  0  0  0  0
   -1.2730    2.4538   -5.8928 H   0  0  0  0  0  0  0  0  0  0  0  0
   -1.3247   -0.9893   -7.5659 Si  0  0  0  0  0  4  0  0  0  0  0  0
   -2.5391   -0.8756   -8.3704 H   0  0  0  0  0  0  0  0  0  0  0  0
   -0.4975    0.2100   -7.8680 H   0  0  0  0  0  0  0  0  0  0  0  0
    1.6809    2.1125   -6.6103 Si  0  0  0  0  0  4  0  0  0  0  0  0
    2.8949    2.6241   -5.9279 H   0  0  0  0  0  0  0  0  0  0  0  0
    1.9706    0.7367   -7.0060 H   0  0  0  0  0  0  0  0  0  0  0  0
    1.2594    3.4139   -8.3633 Si  0  0  0  0  0  4  0  0  0  0  0  0
    2.1520    3.0405   -9.4810 H   0  0  0  0  0  0  0  0  0  0  0  0
    1.5261    4.8101   -7.9707 H   0  0  0  0  0  0  0  0  0  0  0  0
   -0.1461   -2.7908   -8.1967 Si  0  0  0  0  0  4  0  0  0  0  0  0
    0.0447   -3.6298   -6.9913 H   0  0  0  0  0  0  0  0  0  0  0  0
   -0.9082   -3.5788   -9.1667 H   0  0  0  0  0  0  0  0  0  0  0  0
    1.8078   -2.2014   -9.0897 Si  0  0  0  0  0  4  0  0  0  0  0  0
    2.9437   -2.8259   -8.4035 H   0  0  0  0  0  0  0  0  0  0  0  0
    1.9525   -0.7385   -8.8984 H   0  0  0  0  0  0  0  0  0  0  0  0
   -0.8728    3.2896   -8.9965 Si  0  0  0  0  0  4  0  0  0  0  0  0
   -1.4281    4.6151   -9.2833 H   0  0  0  0  0  0  0  0  0  0  0  0
   -1.7112    2.6342   -7.9665 H   0  0  0  0  0  0  0  0  0  0  0  0
    1.8508   -2.5788  -11.2908 Si  0  0  0  0  0  4  0  0  0  0  0  0
    2.6442   -3.7858  -11.5364 H   0  0  0  0  0  0  0  0  0  0  0  0
    0.5018   -2.7283  -11.8215 H   0  0  0  0  0  0  0  0  0  0  0  0
   -0.9599    2.0576  -10.8681 Si  0  0  0  0  0  4  0  0  0  0  0  0
   -0.6286    2.8878  -12.0387 H   0  0  0  0  0  0  0  0  0  0  0  0
    0.0737    1.0118  -10.7772 H   0  0  0  0  0  0  0  0  0  0  0  0
   -2.9869    1.1397  -11.1072 Si  0  0  0  0  0  4  0  0  0  0  0  0
   -3.9870    1.8385  -10.2684 H   0  0  0  0  0  0  0  0  0  0  0  0
   -2.9393   -0.2839  -10.7392 H   0  0  0  0  0  0  0  0  0  0  0  0
   -3.3528    1.2355  -12.5216 H   0  0  0  0  0  0  0  0  0  0  0  0
    2.8058   -0.8311  -12.3384 Si  0  0  0  0  0  4  0  0  0  0  0  0
    3.1715    0.1877  -11.3249 H   0  0  0  0  0  0  0  0  0  0  0  0
    4.0178   -1.2820  -13.0247 H   0  0  0  0  0  0  0  0  0  0  0  0
    1.8673   -0.1868  -13.2580 H   0  0  0  0  0  0  0  0  0  0  0  0
  1  2  1  0
  1  5  1  0
  2  3  1  0
  2  4  1  0
  2  8  1  0
  5  6  1  0
  5  7  1  0
  5 11  1  0
  8  9  1  0
  8 10  1  0
  8 17  1  0
 11 12  1  0
 11 13  1  0
 11 14  1  0
 14 15  1  0
 14 16  1  0
 14 23  1  0
 17 18  1  0
 17 19  1  0
 17 20  1  0
 20 21  1  0
 20 22  1  0
 20 26  1  0
 23 24  1  0
 23 25  1  0
 23 29  1  0
 26 27  1  0
 26 28  1  0
 26 36  1  0
 29 30  1  0
 29 31  1  0
 29 32  1  0
 32 33  1  0
 32 34  1  0
 32 35  1  0
 36 37  1  0
 36 38  1  0
 36 39  1  0
M  CHG  1   1   1
M  RAD  1   1   2
M  END
$$$$

     RDKit          3D

 39 38  0  0  0  0  0  0  0  0999 V2000
   -0.2024    0.1295   -4.3308 S   0  0  0  0  0  2  0  0  0  0  0  0
    1.2611    1.2799   -5.4410 Si  0  0  0  0  0  4  0  0  0  0  0  0
    1.4120    2.5794   -4.8030 H   0  0  0  0  0  0  0  0  0  0  0  0
    2.5406    0.5324   -5.3077 H   0  0  0  0  0  0  0  0  0  0  0  0
   -0.4841   -1.7851   -5.2744 Si  0  0  0  0  0  4  0  0  0  0  0  0
   -0.7347   -2.8107   -4.2338 H   0  0  0  0  0  0  0  0  0  0  0  0
    0.6715   -2.1225   -6.1065 H   0  0  0  0  0  0  0  0  0  0  0  0
    0.6881    1.4122   -7.5772 Si  0  0  0  0  0  4  0  0  0  0  0  0
    1.8300    1.3175   -8.4837 H   0  0  0  0  0  0  0  0  0  0  0  0
   -0.1951    0.2534   -7.8790 H   0  0  0  0  0  0  0  0  0  0  0  0
   -2.3194   -1.6677   -6.5586 Si  0  0  0  0  0  4  0  0  0  0  0  0
   -3.4888   -2.1897   -5.8096 H   0  0  0  0  0  0  0  0  0  0  0  0
   -2.6001   -0.2641   -6.8494 H   0  0  0  0  0  0  0  0  0  0  0  0
   -2.0780   -2.8719   -8.4123 Si  0  0  0  0  0  4  0  0  0  0  0  0
   -3.0464   -2.4110   -9.4297 H   0  0  0  0  0  0  0  0  0  0  0  0
   -2.3525   -4.2822   -8.0802 H   0  0  0  0  0  0  0  0  0  0  0  0
   -0.4849    3.2761   -8.0045 Si  0  0  0  0  0  4  0  0  0  0  0  0
   -0.5538    4.0459   -6.7413 H   0  0  0  0  0  0  0  0  0  0  0  0
    0.2193    4.1020   -8.9867 H   0  0  0  0  0  0  0  0  0  0  0  0
   -2.5205    2.7884   -8.7668 Si  0  0  0  0  0  4  0  0  0  0  0  0
   -3.5790    3.3980   -7.9550 H   0  0  0  0  0  0  0  0  0  0  0  0
   -2.6915    1.3206   -8.6488 H   0  0  0  0  0  0  0  0  0  0  0  0
   -0.0009   -2.7615   -9.2099 Si  0  0  0  0  0  4  0  0  0  0  0  0
    0.4910   -4.0804   -9.6171 H   0  0  0  0  0  0  0  0  0  0  0  0
    0.9362   -2.1892   -8.2160 H   0  0  0  0  0  0  0  0  0  0  0  0
   -2.7293    3.2975  -10.9316 Si  0  0  0  0  0  4  0  0  0  0  0  0
   -3.5047    4.5359  -11.0414 H   0  0  0  0  0  0  0  0  0  0  0  0
   -1.4237    3.4459  -11.5616 H   0  0  0  0  0  0  0  0  0  0  0  0
   -0.0290   -1.4224  -11.0084 Si  0  0  0  0  0  4  0  0  0  0  0  0
   -0.4772   -2.1728  -12.1937 H   0  0  0  0  0  0  0  0  0  0  0  0
   -1.0213   -0.3592  -10.7729 H   0  0  0  0  0  0  0  0  0  0  0  0
    1.9979   -0.5410  -11.3595 Si  0  0  0  0  0  4  0  0  0  0  0  0
    3.0415   -1.3125  -10.6471 H   0  0  0  0  0  0  0  0  0  0  0  0
    2.0212    0.8589  -10.9075 H   0  0  0  0  0  0  0  0  0  0  0  0
    2.2460   -0.5609  -12.8023 H   0  0  0  0  0  0  0  0  0  0  0  0
   -3.8157    1.6390  -11.9962 Si  0  0  0  0  0  4  0  0  0  0  0  0
   -4.1280    0.5707  -11.0166 H   0  0  0  0  0  0  0  0  0  0  0  0
   -5.0653    2.1593  -12.5539 H   0  0  0  0  0  0  0  0  0  0  0  0
   -2.9731    1.0284  -13.0253 H   0  0  0  0  0  0  0  0  0  0  0  0
  1  2  1  0
  1  5  1  0
  2  3  1  0
  2  4  1  0
  2  8  1  0
  5  6  1  0
  5  7  1  0
  5 11  1  0
  8  9  1  0
  8 10  1  0
  8 17  1  0
 11 12  1  0
 11 13  1  0
 11 14  1  0
 14 15  1  0
 14 16  1  0
 14 23  1  0
 17 18  1  0
 17 19  1  0
 17 20  1  0
 20 21  1  0
 20 22  1  0
 20 26  1  0
 23 24  1  0
 23 25  1  0
 23 29  1  0
 26 27  1  0
 26 28  1  0
 26 36  1  0
 29 30  1  0
 29 31  1  0
 29 32  1  0
 32 33  1  0
 32 34  1  0
 32 35  1  0
 36 37  1  0
 36 38  1  0
 36 39  1  0
M  CHG  1   1   1
M  RAD  1   1   2
M  END
$$$$

     RDKit          3D

 39 38  0  0  0  0  0  0  0  0999 V2000
   -0.2024    0.1295   -4.3308 S   0  0  0  0  0  2  0  0  0  0  0  0
   -1.7135   -1.0098   -5.3873 Si  0  0  0  0  0  4  0  0  0  0  0  0
   -1.7686   -2.3485   -4.8185 H   0  0  0  0  0  0  0  0  0  0  0  0
   -3.0016   -0.3200   -5.1073 H   0  0  0  0  0  0  0  0  0  0  0  0
   -0.0624    2.1043   -5.1772 Si  0  0  0  0  0  4  0  0  0  0  0  0
    0.2390    3.0774   -4.1003 H   0  0  0  0  0  0  0  0  0  0  0  0
   -1.2930    2.4449   -5.8923 H   0  0  0  0  0  0  0  0  0  0  0  0
   -1.3140   -0.9980   -7.5666 Si  0  0  0  0  0  4  0  0  0  0  0  0
   -2.5291   -0.8947   -8.3713 H   0  0  0  0  0  0  0  0  0  0  0  0
   -0.4973    0.2087   -7.8680 H   0  0  0  0  0  0  0  0  0  0  0  0
    1.6640    2.1298   -6.6091 Si  0  0  0  0  0  4  0  0  0  0  0  0
    2.8732    2.6519   -5.9262 H   0  0  0  0  0  0  0  0  0  0  0  0
    1.9659    0.7568   -7.0052 H   0  0  0  0  0  0  0  0  0  0  0  0
    1.2315    3.4281   -8.3618 Si  0  0  0  0  0  4  0  0  0  0  0  0
    2.1275    3.0630   -9.4793 H   0  0  0  0  0  0  0  0  0  0  0  0
    1.4858    4.8265   -7.9686 H   0  0  0  0  0  0  0  0  0  0  0  0
   -0.1194   -2.7888   -8.1978 Si  0  0  0  0  0  4  0  0  0  0  0  0
    0.0785   -3.6265   -6.9926 H   0  0  0  0  0  0  0  0  0  0  0  0
   -0.8743   -3.5831   -9.1682 H   0  0  0  0  0  0  0  0  0  0  0  0
    1.8295   -2.1819   -9.0900 Si  0  0  0  0  0  4  0  0  0  0  0  0
    2.9707   -2.7966   -8.4037 H   0  0  0  0  0  0  0  0  0  0  0  0
    1.9612   -0.7178   -8.8981 H   0  0  0  0  0  0  0  0  0  0  0  0
   -0.8995    3.2853   -8.9956 Si  0  0  0  0  0  4  0  0  0  0  0  0
   -1.4663    4.6059   -9.2821 H   0  0  0  0  0  0  0  0  0  0  0  0
   -1.7323    2.6221   -7.9660 H   0  0  0  0  0  0  0  0  0  0  0  0
    1.8763   -2.5581  -11.2913 Si  0  0  0  0  0  4  0  0  0  0  0  0
    2.6804   -3.7580  -11.5370 H   0  0  0  0  0  0  0  0  0  0  0  0
    0.5289   -2.7193  -11.8224 H   0  0  0  0  0  0  0  0  0  0  0  0
   -0.9752    2.0532  -10.8676 Si  0  0  0  0  0  4  0  0  0  0  0  0
   -0.6509    2.8867  -12.0379 H   0  0  0  0  0  0  0  0  0  0  0  0
    0.0676    1.0165  -10.7768 H   0  0  0  0  0  0  0  0  0  0  0  0
   -2.9939    1.1176  -11.1075 Si  0  0  0  0  0  4  0  0  0  0  0  0
   -4.0003    1.8072  -10.2688 H   0  0  0  0  0  0  0  0  0  0  0  0
   -2.9339   -0.3057  -10.7401 H   0  0  0  0  0  0  0  0  0  0  0  0
   -3.3603    1.2106  -12.5220 H   0  0  0  0  0  0  0  0  0  0  0  0
    2.8162   -0.8016  -12.3379 Si  0  0  0  0  0  4  0  0  0  0  0  0
    3.1727    0.2199  -11.3240 H   0  0  0  0  0  0  0  0  0  0  0  0
    4.0323   -1.2416  -13.0241 H   0  0  0  0  0  0  0  0  0  0  0  0
    1.8723   -0.1654  -13.2576 H   0  0  0  0  0  0  0  0  0  0  0  0
  1  2  1  0
  1  5  1  0
  2  3  1  0
  2  4  1  0
  2  8  1  0
  5  6  1  0
  5  7  1  0
  5 11  1  0
  8  9  1  0
  8 10  1  0
  8 17  1  0
 11 12  1  0
 11 13  1  0
 11 14  1  0
 14 15  1  0
 14 16  1  0
 14 23  1  0
 17 18  1  0
 17 19  1  0
 17 20  1  0
 20 21  1  0
 20 22  1  0
 20 26  1  0
 23 24  1  0
 23 25  1  0
 23 29  1  0
 26 27  1  0
 26 28  1  0
 26 36  1  0
 29 30  1  0
 29 31  1  0
 29 32  1  0
 32 33  1  0
 32 34  1  0
 32 35  1  0
 36 37  1  0
 36 38  1  0
 36 39  1  0
M  CHG  1   1   1
M  RAD  1   1   2
M  END
$$$$

     RDKit          3D

 39 38  0  0  0  0  0  0  0  0999 V2000
   -0.2024    0.1295   -4.3308 S   0  0  0  0  0  2  0  0  0  0  0  0
    1.2512    1.2931   -5.4402 Si  0  0  0  0  0  4  0  0  0  0  0  0
    1.3905    2.5937   -4.8017 H   0  0  0  0  0  0  0  0  0  0  0  0
    2.5372    0.5569   -5.3069 H   0  0  0  0  0  0  0  0  0  0  0  0
   -0.4670   -1.7872   -5.2751 Si  0  0  0  0  0  4  0  0  0  0  0  0
   -0.7088   -2.8153   -4.2350 H   0  0  0  0  0  0  0  0  0  0  0  0
    0.6917   -2.1140   -6.1071 H   0  0  0  0  0  0  0  0  0  0  0  0
    0.6776    1.4212   -7.5765 Si  0  0  0  0  0  4  0  0  0  0  0  0
    1.8205    1.3369   -8.4827 H   0  0  0  0  0  0  0  0  0  0  0  0
   -0.1952    0.2547   -7.8790 H   0  0  0  0  0  0  0  0  0  0  0  0
   -2.3029   -1.6855   -6.5598 Si  0  0  0  0  0  4  0  0  0  0  0  0
   -3.4679   -2.2180   -5.8113 H   0  0  0  0  0  0  0  0  0  0  0  0
   -2.5959   -0.2843   -6.8501 H   0  0  0  0  0  0  0  0  0  0  0  0
   -2.0505   -2.8868   -8.4139 Si  0  0  0  0  0  4  0  0  0  0  0  0
   -3.0226   -2.4341   -9.4314 H   0  0  0  0  0  0  0  0  0  0  0  0
   -2.3126   -4.2996   -8.0824 H   0  0  0  0  0  0  0  0  0  0  0  0
   -0.5116    3.2748   -8.0035 Si  0  0  0  0  0  4  0  0  0  0  0  0
   -0.5877    4.0435   -6.7400 H   0  0  0  0  0  0  0  0  0  0  0  0
    0.1854    4.1072   -8.9852 H   0  0  0  0  0  0  0  0  0  0  0  0
   -2.5427    2.7695   -8.7664 Si  0  0  0  0  0  4  0  0  0  0  0  0
   -3.6067    3.3694   -7.9547 H   0  0  0  0  0  0  0  0  0  0  0  0
   -2.7008    1.3002   -8.6491 H   0  0  0  0  0  0  0  0  0  0  0  0
    0.0259   -2.7578   -9.2109 Si  0  0  0  0  0  4  0  0  0  0  0  0
    0.5294   -4.0722   -9.6185 H   0  0  0  0  0  0  0  0  0  0  0  0
    0.9576   -2.1776   -8.2166 H   0  0  0  0  0  0  0  0  0  0  0  0
   -2.7555    3.2775  -10.9312 Si  0  0  0  0  0  4  0  0  0  0  0  0
   -3.5417    4.5090  -11.0407 H   0  0  0  0  0  0  0  0  0  0  0  0
   -1.4510    3.4376  -11.5607 H   0  0  0  0  0  0  0  0  0  0  0  0
   -0.0136   -1.4184  -11.0089 Si  0  0  0  0  0  4  0  0  0  0  0  0
   -0.4549   -2.1723  -12.1946 H   0  0  0  0  0  0  0  0  0  0  0  0
   -1.0153   -0.3641  -10.7733 H   0  0  0  0  0  0  0  0  0  0  0  0
    2.0055   -0.5191  -11.3591 Si  0  0  0  0  0  4  0  0  0  0  0  0
    3.0557   -1.2816  -10.6468 H   0  0  0  0  0  0  0  0  0  0  0  0
    2.0164    0.8808  -10.9067 H   0  0  0  0  0  0  0  0  0  0  0  0
    2.2542   -0.5362  -12.8019 H   0  0  0  0  0  0  0  0  0  0  0  0
   -3.8268    1.6099  -11.9967 Si  0  0  0  0  0  4  0  0  0  0  0  0
   -4.1300    0.5385  -11.0175 H   0  0  0  0  0  0  0  0  0  0  0  0
   -5.0809    2.1193  -12.5544 H   0  0  0  0  0  0  0  0  0  0  0  0
   -2.9787    1.0071  -13.0257 H   0  0  0  0  0  0  0  0  0  0  0  0
  1  2  1  0
  1  5  1  0
  2  3  1  0
  2  4  1  0
  2  8  1  0
  5  6  1  0
  5  7  1  0
  5 11  1  0
  8  9  1  0
  8 10  1  0
  8 17  1  0
 11 12  1  0
 11 13  1  0
 11 14  1  0
 14 15  1  0
 14 16  1  0
 14 23  1  0
 17 18  1  0
 17 19  1  0
 17 20  1  0
 20 21  1  0
 20 22  1  0
 20 26  1  0
 23 24  1  0
 23 25  1  0
 23 29  1  0
 26 27  1  0
 26 28  1  0
 26 36  1  0
 29 30  1  0
 29 31  1  0
 29 32  1  0
 32 33  1  0
 32 34  1  0
 32 35  1  0
 36 37  1  0
 36 38  1  0
 36 39  1  0
M  CHG  1   1   1
M  RAD  1   1   2
M  END
$$$$
