
     RDKit          3D

 39 38  0  0  0  0  0  0  0  0999 V2000
   -0.2374   -2.0389    3.6248 S   0  0  0  0  0  2  0  0  0  0  0  0
    0.3178   -2.1694    5.6860 Si  0  0  0  0  0  4  0  0  0  0  0  0
   -0.8314   -1.8153    6.5176 H   0  0  0  0  0  0  0  0  0  0  0  0
    1.4270   -1.2472    5.9265 H   0  0  0  0  0  0  0  0  0  0  0  0
   -2.3868   -2.0431    3.4706 Si  0  0  0  0  0  4  0  0  0  0  0  0
   -2.8471   -0.6717    3.7084 H   0  0  0  0  0  0  0  0  0  0  0  0
   -2.7671   -2.4655    2.1155 H   0  0  0  0  0  0  0  0  0  0  0  0
    0.9854   -4.2272    6.1518 Si  0  0  0  0  0  4  0  0  0  0  0  0
   -0.1422   -5.1778    6.1355 H   0  0  0  0  0  0  0  0  0  0  0  0
    1.9822   -4.6523    5.1413 H   0  0  0  0  0  0  0  0  0  0  0  0
   -3.2529   -3.4076    5.0235 Si  0  0  0  0  0  4  0  0  0  0  0  0
   -4.4068   -2.7615    5.6565 H   0  0  0  0  0  0  0  0  0  0  0  0
   -2.2284   -3.6916    6.0413 H   0  0  0  0  0  0  0  0  0  0  0  0
   -3.8803   -5.2908    3.9775 Si  0  0  0  0  0  4  0  0  0  0  0  0
   -2.7087   -6.1566    3.7613 H   0  0  0  0  0  0  0  0  0  0  0  0
   -4.4606   -4.8765    2.6801 H   0  0  0  0  0  0  0  0  0  0  0  0
    1.9919   -4.3465    8.1431 Si  0  0  0  0  0  4  0  0  0  0  0  0
    3.2169   -3.5533    8.0771 H   0  0  0  0  0  0  0  0  0  0  0  0
    2.3510   -5.7676    8.3592 H   0  0  0  0  0  0  0  0  0  0  0  0
    0.6705   -3.6687    9.7822 Si  0  0  0  0  0  4  0  0  0  0  0  0
    0.8607   -4.5708   10.9457 H   0  0  0  0  0  0  0  0  0  0  0  0
   -0.7387   -3.7468    9.4069 H   0  0  0  0  0  0  0  0  0  0  0  0
   -5.4627   -6.2947    5.1712 Si  0  0  0  0  0  4  0  0  0  0  0  0
   -5.5298   -7.7188    4.8523 H   0  0  0  0  0  0  0  0  0  0  0  0
   -6.7659   -5.7002    4.7949 H   0  0  0  0  0  0  0  0  0  0  0  0
    1.1759   -1.5814   10.4245 Si  0  0  0  0  0  4  0  0  0  0  0  0
    2.6233   -1.3352   10.2508 H   0  0  0  0  0  0  0  0  0  0  0  0
    0.8694   -1.4241   11.8586 H   0  0  0  0  0  0  0  0  0  0  0  0
   -5.1235   -6.0289    7.3668 Si  0  0  0  0  0  4  0  0  0  0  0  0
   -3.6984   -5.7459    7.6000 H   0  0  0  0  0  0  0  0  0  0  0  0
   -5.5161   -7.2407    8.1196 H   0  0  0  0  0  0  0  0  0  0  0  0
   -6.4040   -4.3293    8.0490 Si  0  0  0  0  0  4  0  0  0  0  0  0
   -5.8552   -3.6709    9.2366 H   0  0  0  0  0  0  0  0  0  0  0  0
   -6.4883   -3.3370    6.9537 H   0  0  0  0  0  0  0  0  0  0  0  0
   -7.7653   -4.7942    8.3045 H   0  0  0  0  0  0  0  0  0  0  0  0
    0.0308   -0.0797    9.2188 Si  0  0  0  0  0  4  0  0  0  0  0  0
   -1.2655   -0.6492    8.8590 H   0  0  0  0  0  0  0  0  0  0  0  0
    0.7771    0.2097    7.9786 H   0  0  0  0  0  0  0  0  0  0  0  0
   -0.1185    1.1737    9.9827 H   0  0  0  0  0  0  0  0  0  0  0  0
  1  2  1  0
  1  5  1  0
  2  3  1  0
  2  4  1  0
  2  8  1  0
  5  6  1  0
  5  7  1  0
  5 11  1  0
  8  9  1  0
  8 10  1  0
  8 17  1  0
 11 12  1  0
 11 13  1  0
 11 14  1  0
 14 15  1  0
 14 16  1  0
 14 23  1  0
 17 18  1  0
 17 19  1  0
 17 20  1  0
 20 21  1  0
 20 22  1  0
 20 26  1  0
 23 24  1  0
 23 25  1  0
 23 29  1  0
 26 27  1  0
 26 28  1  0
 26 36  1  0
 29 30  1  0
 29 31  1  0
 29 32  1  0
 32 33  1  0
 32 34  1  0
 32 35  1  0
 36 37  1  0
 36 38  1  0
 36 39  1  0
M  CHG  1   1   1
M  RAD  1   1   2
M  END
$$$$

     RDKit          3D

 39 38  0  0  0  0  0  0  0  0999 V2000
   -0.2374   -2.0389    3.6248 S   0  0  0  0  0  2  0  0  0  0  0  0
   -1.7915   -3.1957    4.5284 Si  0  0  0  0  0  4  0  0  0  0  0  0
   -2.6109   -2.3288    5.3791 H   0  0  0  0  0  0  0  0  0  0  0  0
   -2.6189   -3.7533    3.4435 H   0  0  0  0  0  0  0  0  0  0  0  0
    0.2782   -0.3519    4.8470 Si  0  0  0  0  0  4  0  0  0  0  0  0
   -0.0267    0.9059    4.1533 H   0  0  0  0  0  0  0  0  0  0  0  0
    1.7405   -0.3775    5.0838 H   0  0  0  0  0  0  0  0  0  0  0  0
   -0.9225   -4.8798    5.6901 Si  0  0  0  0  0  4  0  0  0  0  0  0
   -0.9059   -6.0889    4.8570 H   0  0  0  0  0  0  0  0  0  0  0  0
    0.4776   -4.5539    6.0234 H   0  0  0  0  0  0  0  0  0  0  0  0
   -0.8503   -0.3758    6.7765 Si  0  0  0  0  0  4  0  0  0  0  0  0
   -1.8580    0.6816    6.8325 H   0  0  0  0  0  0  0  0  0  0  0  0
   -1.4689   -1.6912    7.0054 H   0  0  0  0  0  0  0  0  0  0  0  0
    0.6079   -0.0293    8.4302 Si  0  0  0  0  0  4  0  0  0  0  0  0
    1.5598   -1.1392    8.4458 H   0  0  0  0  0  0  0  0  0  0  0  0
   -0.0974    0.1236    9.7193 H   0  0  0  0  0  0  0  0  0  0  0  0
   -2.0840   -5.2780    7.5523 Si  0  0  0  0  0  4  0  0  0  0  0  0
   -3.3297   -5.9742    7.2363 H   0  0  0  0  0  0  0  0  0  0  0  0
   -2.3598   -3.9968    8.2140 H   0  0  0  0  0  0  0  0  0  0  0  0
   -0.8740   -6.6064    8.8816 Si  0  0  0  0  0  4  0  0  0  0  0  0
   -0.5809   -7.8463    8.1472 H   0  0  0  0  0  0  0  0  0  0  0  0
   -1.6484   -6.8888   10.1069 H   0  0  0  0  0  0  0  0  0  0  0  0
    1.7716    1.8505    8.0982 Si  0  0  0  0  0  4  0  0  0  0  0  0
    2.8194    1.6097    7.0667 H   0  0  0  0  0  0  0  0  0  0  0  0
    0.9028    2.9584    7.6697 H   0  0  0  0  0  0  0  0  0  0  0  0
    1.0418   -5.5857    9.4432 Si  0  0  0  0  0  4  0  0  0  0  0  0
    1.9888   -6.6210    9.8719 H   0  0  0  0  0  0  0  0  0  0  0  0
    1.5867   -4.9203    8.2544 H   0  0  0  0  0  0  0  0  0  0  0  0
    2.7624    2.3437   10.0631 Si  0  0  0  0  0  4  0  0  0  0  0  0
    3.3819    3.6531   10.0343 H   0  0  0  0  0  0  0  0  0  0  0  0
    1.6706    2.3171   11.0775 H   0  0  0  0  0  0  0  0  0  0  0  0
    4.1728    0.7009   10.5351 Si  0  0  0  0  0  4  0  0  0  0  0  0
    5.4055    1.2294   11.1215 H   0  0  0  0  0  0  0  0  0  0  0  0
    3.5747   -0.2812   11.4672 H   0  0  0  0  0  0  0  0  0  0  0  0
    4.5416   -0.0191    9.2939 H   0  0  0  0  0  0  0  0  0  0  0  0
    0.6857   -4.0827   11.0531 Si  0  0  0  0  0  4  0  0  0  0  0  0
    1.3424   -4.5545   12.2871 H   0  0  0  0  0  0  0  0  0  0  0  0
    1.2471   -2.7676   10.6846 H   0  0  0  0  0  0  0  0  0  0  0  0
   -0.7575   -3.9130   11.2859 H   0  0  0  0  0  0  0  0  0  0  0  0
  1  2  1  0
  1  5  1  0
  2  3  1  0
  2  4  1  0
  2  8  1  0
  5  6  1  0
  5  7  1  0
  5 11  1  0
  8  9  1  0
  8 10  1  0
  8 17  1  0
 11 12  1  0
 11 13  1  0
 11 14  1  0
 14 15  1  0
 14 16  1  0
 14 23  1  0
 17 18  1  0
 17 19  1  0
 17 20  1  0
 20 21  1  0
 20 22  1  0
 20 26  1  0
 23 24  1  0
 23 25  1  0
 23 29  1  0
 26 27  1  0
 26 28  1  0
 26 36  1  0
 29 30  1  0
 29 31  1  0
 29 32  1  0
 32 33  1  0
 32 34  1  0
 32 35  1  0
 36 37  1  0
 36 38  1  0
 36 39  1  0
M  CHG  1   1   1
M  RAD  1   1   2
M  END
$$$$

     RDKit          3D

 39 38  0  0  0  0  0  0  0  0999 V2000
   -0.2374   -2.0389    3.6248 S   0  0  0  0  0  2  0  0  0  0  0  0
   -0.5199   -0.7222    5.2742 Si  0  0  0  0  0  4  0  0  0  0  0  0
   -0.3168    0.6665    4.7673 H   0  0  0  0  0  0  0  0  0  0  0  0
   -1.8891   -0.7628    5.7983 H   0  0  0  0  0  0  0  0  0  0  0  0
   -1.6221   -3.6476    3.5933 Si  0  0  0  0  0  4  0  0  0  0  0  0
   -1.5782   -4.2584    2.2359 H   0  0  0  0  0  0  0  0  0  0  0  0
   -3.0101   -3.1925    3.7860 H   0  0  0  0  0  0  0  0  0  0  0  0
    1.0128   -1.1109    6.8094 Si  0  0  0  0  0  4  0  0  0  0  0  0
    2.1493   -0.1560    6.6608 H   0  0  0  0  0  0  0  0  0  0  0  0
    1.6166   -2.4538    6.5653 H   0  0  0  0  0  0  0  0  0  0  0  0
   -1.1062   -5.2440    5.0576 Si  0  0  0  0  0  4  0  0  0  0  0  0
   -0.9083   -6.5480    4.3993 H   0  0  0  0  0  0  0  0  0  0  0  0
    0.0856   -4.8883    5.8390 H   0  0  0  0  0  0  0  0  0  0  0  0
   -2.8308   -5.5175    6.4883 Si  0  0  0  0  0  4  0  0  0  0  0  0
   -3.6762   -6.6330    6.0664 H   0  0  0  0  0  0  0  0  0  0  0  0
   -2.2642   -5.8539    7.8119 H   0  0  0  0  0  0  0  0  0  0  0  0
    0.2676   -1.0537    8.8679 Si  0  0  0  0  0  4  0  0  0  0  0  0
    1.2847   -0.4105    9.7476 H   0  0  0  0  0  0  0  0  0  0  0  0
    0.0833   -2.4138    9.3995 H   0  0  0  0  0  0  0  0  0  0  0  0
   -1.6337    0.0473    9.1237 Si  0  0  0  0  0  4  0  0  0  0  0  0
   -2.7871   -0.6857    8.5834 H   0  0  0  0  0  0  0  0  0  0  0  0
   -1.8709    0.1495   10.5941 H   0  0  0  0  0  0  0  0  0  0  0  0
   -3.9274   -3.5969    6.5622 Si  0  0  0  0  0  4  0  0  0  0  0  0
   -2.9784   -2.5463    6.9794 H   0  0  0  0  0  0  0  0  0  0  0  0
   -4.4672   -3.3235    5.2098 H   0  0  0  0  0  0  0  0  0  0  0  0
   -1.5238    2.1194    8.3450 Si  0  0  0  0  0  4  0  0  0  0  0  0
   -1.3073    2.1273    6.9078 H   0  0  0  0  0  0  0  0  0  0  0  0
   -2.7898    2.8031    8.7123 H   0  0  0  0  0  0  0  0  0  0  0  0
   -5.6062   -3.6155    8.0008 Si  0  0  0  0  0  4  0  0  0  0  0  0
   -5.0429   -3.6120    9.3748 H   0  0  0  0  0  0  0  0  0  0  0  0
   -6.5151   -4.7396    7.8179 H   0  0  0  0  0  0  0  0  0  0  0  0
   -6.7535   -1.6930    7.7529 Si  0  0  0  0  0  4  0  0  0  0  0  0
   -6.4817   -0.7788    8.8651 H   0  0  0  0  0  0  0  0  0  0  0  0
   -8.2044   -1.9742    7.6158 H   0  0  0  0  0  0  0  0  0  0  0  0
   -6.3509   -1.0041    6.5151 H   0  0  0  0  0  0  0  0  0  0  0  0
    0.1109    3.1994    9.4415 Si  0  0  0  0  0  4  0  0  0  0  0  0
    1.2179    2.3043    9.7608 H   0  0  0  0  0  0  0  0  0  0  0  0
    0.5652    4.2882    8.5537 H   0  0  0  0  0  0  0  0  0  0  0  0
   -0.4020    3.8112   10.6833 H   0  0  0  0  0  0  0  0  0  0  0  0
  1  2  1  0
  1  5  1  0
  2  3  1  0
  2  4  1  0
  2  8  1  0
  5  6  1  0
  5  7  1  0
  5 11  1  0
  8  9  1  0
  8 10  1  0
  8 17  1  0
 11 12  1  0
 11 13  1  0
 11 14  1  0
 14 15  1  0
 14 16  1  0
 14 23  1  0
 17 18  1  0
 17 19  1  0
 17 20  1  0
 20 21  1  0
 20 22  1  0
 20 26  1  0
 23 24  1  0
 23 25  1  0
 23 29  1  0
 26 27  1  0
 26 28  1  0
 26 36  1  0
 29 30  1  0
 29 31  1  0
 29 32  1  0
 32 33  1  0
 32 34  1  0
 32 35  1  0
 36 37  1  0
 36 38  1  0
 36 39  1  0
M  CHG  1   1   1
M  RAD  1   1   2
M  END
$$$$

     RDKit          3D

 39 38  0  0  0  0  0  0  0  0999 V2000
   -0.2374   -2.0389    3.6248 S   0  0  0  0  0  2  0  0  0  0  0  0
    0.4283   -1.6380    5.6002 Si  0  0  0  0  0  4  0  0  0  0  0  0
   -0.5623   -1.9626    6.6193 H   0  0  0  0  0  0  0  0  0  0  0  0
    1.6803   -2.3740    5.9137 H   0  0  0  0  0  0  0  0  0  0  0  0
   -1.7827   -3.4876    3.5440 Si  0  0  0  0  0  4  0  0  0  0  0  0
   -1.4820   -4.6973    4.3016 H   0  0  0  0  0  0  0  0  0  0  0  0
   -1.9439   -3.9082    2.1227 H   0  0  0  0  0  0  0  0  0  0  0  0
    0.8497    0.5633    5.7651 Si  0  0  0  0  0  4  0  0  0  0  0  0
    2.3019    0.7997    5.6597 H   0  0  0  0  0  0  0  0  0  0  0  0
    0.1943    1.2818    4.6437 H   0  0  0  0  0  0  0  0  0  0  0  0
   -3.7491   -2.6838    4.2075 Si  0  0  0  0  0  4  0  0  0  0  0  0
   -4.7738   -3.7068    3.8859 H   0  0  0  0  0  0  0  0  0  0  0  0
   -4.1086   -1.4757    3.4472 H   0  0  0  0  0  0  0  0  0  0  0  0
   -3.7724   -2.2553    6.3840 Si  0  0  0  0  0  4  0  0  0  0  0  0
   -2.8929   -1.0811    6.6166 H   0  0  0  0  0  0  0  0  0  0  0  0
   -5.1265   -1.8805    6.7783 H   0  0  0  0  0  0  0  0  0  0  0  0
    0.0395    1.3991    7.6548 Si  0  0  0  0  0  4  0  0  0  0  0  0
   -0.5310    2.7476    7.4162 H   0  0  0  0  0  0  0  0  0  0  0  0
   -1.0345    0.5778    8.2134 H   0  0  0  0  0  0  0  0  0  0  0  0
    1.6196    1.6250    9.2125 Si  0  0  0  0  0  4  0  0  0  0  0  0
    2.6158    2.6415    8.8429 H   0  0  0  0  0  0  0  0  0  0  0  0
    0.9476    2.0478   10.4581 H   0  0  0  0  0  0  0  0  0  0  0  0
   -2.9992   -4.0113    7.4977 Si  0  0  0  0  0  4  0  0  0  0  0  0
   -2.1861   -4.8154    6.5774 H   0  0  0  0  0  0  0  0  0  0  0  0
   -2.1113   -3.5336    8.5770 H   0  0  0  0  0  0  0  0  0  0  0  0
    2.5869   -0.3435    9.6103 Si  0  0  0  0  0  4  0  0  0  0  0  0
    2.9989   -0.9502    8.3256 H   0  0  0  0  0  0  0  0  0  0  0  0
    3.7475   -0.0990   10.4791 H   0  0  0  0  0  0  0  0  0  0  0  0
   -4.6107   -5.2186    8.4143 Si  0  0  0  0  0  4  0  0  0  0  0  0
   -4.0843   -6.5837    8.6518 H   0  0  0  0  0  0  0  0  0  0  0  0
   -4.9981   -4.6664    9.7126 H   0  0  0  0  0  0  0  0  0  0  0  0
   -6.3739   -5.3578    7.0726 Si  0  0  0  0  0  4  0  0  0  0  0  0
   -7.0726   -4.0590    7.0641 H   0  0  0  0  0  0  0  0  0  0  0  0
   -5.9371   -5.7516    5.7228 H   0  0  0  0  0  0  0  0  0  0  0  0
   -7.3027   -6.3600    7.6282 H   0  0  0  0  0  0  0  0  0  0  0  0
    1.1031   -1.6394   10.6668 Si  0  0  0  0  0  4  0  0  0  0  0  0
    1.0640   -2.9286    9.9683 H   0  0  0  0  0  0  0  0  0  0  0  0
   -0.2456   -1.0627   10.6231 H   0  0  0  0  0  0  0  0  0  0  0  0
    1.5546   -1.8929   12.0399 H   0  0  0  0  0  0  0  0  0  0  0  0
  1  2  1  0
  1  5  1  0
  2  3  1  0
  2  4  1  0
  2  8  1  0
  5  6  1  0
  5  7  1  0
  5 11  1  0
  8  9  1  0
  8 10  1  0
  8 17  1  0
 11 12  1  0
 11 13  1  0
 11 14  1  0
 14 15  1  0
 14 16  1  0
 14 23  1  0
 17 18  1  0
 17 19  1  0
 17 20  1  0
 20 21  1  0
 20 22  1  0
 20 26  1  0
 23 24  1  0
 23 25  1  0
 23 29  1  0
 26 27  1  0
 26 28  1  0
 26 36  1  0
 29 30  1  0
 29 31  1  0
 29 32  1  0
 32 33  1  0
 32 34  1  0
 32 35  1  0
 36 37  1  0
 36 38  1  0
 36 39  1  0
M  CHG  1   1   1
M  RAD  1   1   2
M  END
$$$$

     RDKit          3D

 39 38  0  0  0  0  0  0  0  0999 V2000
   -0.2374   -2.0389    3.6248 S   0  0  0  0  0  2  0  0  0  0  0  0
    0.7998   -2.6489    5.3918 Si  0  0  0  0  0  4  0  0  0  0  0  0
    0.8239   -4.1123    5.4606 H   0  0  0  0  0  0  0  0  0  0  0  0
    2.1773   -2.1330    5.2992 H   0  0  0  0  0  0  0  0  0  0  0  0
   -1.6806   -3.5118    3.0305 Si  0  0  0  0  0  4  0  0  0  0  0  0
   -1.3352   -4.0803    1.7215 H   0  0  0  0  0  0  0  0  0  0  0  0
   -2.9950   -2.8440    2.8844 H   0  0  0  0  0  0  0  0  0  0  0  0
   -0.1633   -1.7711    7.1925 Si  0  0  0  0  0  4  0  0  0  0  0  0
    0.5331   -0.5323    7.5623 H   0  0  0  0  0  0  0  0  0  0  0  0
   -1.5553   -1.4125    6.8590 H   0  0  0  0  0  0  0  0  0  0  0  0
   -1.7872   -5.1834    4.5109 Si  0  0  0  0  0  4  0  0  0  0  0  0
   -1.2258   -6.4225    3.9762 H   0  0  0  0  0  0  0  0  0  0  0  0
   -1.1177   -4.8134    5.7680 H   0  0  0  0  0  0  0  0  0  0  0  0
   -3.9378   -5.5466    4.9843 Si  0  0  0  0  0  4  0  0  0  0  0  0
   -4.4806   -4.3443    5.6153 H   0  0  0  0  0  0  0  0  0  0  0  0
   -4.0856   -6.7437    5.8371 H   0  0  0  0  0  0  0  0  0  0  0  0
   -0.1252   -3.1864    8.9161 Si  0  0  0  0  0  4  0  0  0  0  0  0
    1.2126   -3.2383    9.5028 H   0  0  0  0  0  0  0  0  0  0  0  0
   -0.5340   -4.5137    8.4401 H   0  0  0  0  0  0  0  0  0  0  0  0
   -1.5339   -2.4440   10.4846 Si  0  0  0  0  0  4  0  0  0  0  0  0
   -1.1093   -1.0928   10.8802 H   0  0  0  0  0  0  0  0  0  0  0  0
   -1.4961   -3.3679   11.6360 H   0  0  0  0  0  0  0  0  0  0  0  0
   -5.1203   -5.9224    3.1245 Si  0  0  0  0  0  4  0  0  0  0  0  0
   -5.3706   -4.6304    2.4261 H   0  0  0  0  0  0  0  0  0  0  0  0
   -4.4239   -6.8475    2.2160 H   0  0  0  0  0  0  0  0  0  0  0  0
   -3.6206   -2.3752    9.6672 Si  0  0  0  0  0  4  0  0  0  0  0  0
   -4.3967   -1.4541   10.5048 H   0  0  0  0  0  0  0  0  0  0  0  0
   -3.5744   -1.8366    8.3031 H   0  0  0  0  0  0  0  0  0  0  0  0
   -7.0881   -6.8033    3.7859 Si  0  0  0  0  0  4  0  0  0  0  0  0
   -7.8642   -7.2811    2.6596 H   0  0  0  0  0  0  0  0  0  0  0  0
   -6.7342   -7.9406    4.6820 H   0  0  0  0  0  0  0  0  0  0  0  0
   -8.1329   -5.2745    5.0034 Si  0  0  0  0  0  4  0  0  0  0  0  0
   -9.5680   -5.2754    4.7152 H   0  0  0  0  0  0  0  0  0  0  0  0
   -7.9292   -5.4980    6.4525 H   0  0  0  0  0  0  0  0  0  0  0  0
   -7.6122   -3.9268    4.6755 H   0  0  0  0  0  0  0  0  0  0  0  0
   -4.5199   -4.4168    9.6426 Si  0  0  0  0  0  4  0  0  0  0  0  0
   -5.6132   -4.4584   10.6323 H   0  0  0  0  0  0  0  0  0  0  0  0
   -5.0679   -4.7390    8.3099 H   0  0  0  0  0  0  0  0  0  0  0  0
   -3.5039   -5.4286    9.9742 H   0  0  0  0  0  0  0  0  0  0  0  0
  1  2  1  0
  1  5  1  0
  2  3  1  0
  2  4  1  0
  2  8  1  0
  5  6  1  0
  5  7  1  0
  5 11  1  0
  8  9  1  0
  8 10  1  0
  8 17  1  0
 11 12  1  0
 11 13  1  0
 11 14  1  0
 14 15  1  0
 14 16  1  0
 14 23  1  0
 17 18  1  0
 17 19  1  0
 17 20  1  0
 20 21  1  0
 20 22  1  0
 20 26  1  0
 23 24  1  0
 23 25  1  0
 23 29  1  0
 26 27  1  0
 26 28  1  0
 26 36  1  0
 29 30  1  0
 29 31  1  0
 29 32  1  0
 32 33  1  0
 32 34  1  0
 32 35  1  0
 36 37  1  0
 36 38  1  0
 36 39  1  0
M  CHG  1   1   1
M  RAD  1   1   2
M  END
$$$$

     RDKit          3D

 39 38  0  0  0  0  0  0  0  0999 V2000
   -0.2374   -2.0389    3.6248 S   0  0  0  0  0  2  0  0  0  0  0  0
    0.2181   -3.7872    4.7677 Si  0  0  0  0  0  4  0  0  0  0  0  0
   -0.9506   -4.6706    4.7916 H   0  0  0  0  0  0  0  0  0  0  0  0
    1.3440   -4.4702    4.1057 H   0  0  0  0  0  0  0  0  0  0  0  0
   -2.3397   -1.6106    3.6755 Si  0  0  0  0  0  4  0  0  0  0  0  0
   -2.9257   -1.7207    2.3337 H   0  0  0  0  0  0  0  0  0  0  0  0
   -2.5190   -0.2079    4.1174 H   0  0  0  0  0  0  0  0  0  0  0  0
    0.8458   -3.2219    6.8237 Si  0  0  0  0  0  4  0  0  0  0  0  0
    2.3115   -3.1550    6.8845 H   0  0  0  0  0  0  0  0  0  0  0  0
    0.3293   -1.8725    7.1235 H   0  0  0  0  0  0  0  0  0  0  0  0
   -3.4210   -3.0250    5.0273 Si  0  0  0  0  0  4  0  0  0  0  0  0
   -4.2630   -3.9576    4.2804 H   0  0  0  0  0  0  0  0  0  0  0  0
   -2.4751   -3.7565    5.8850 H   0  0  0  0  0  0  0  0  0  0  0  0
   -4.7408   -1.8226    6.3666 Si  0  0  0  0  0  4  0  0  0  0  0  0
   -3.8970   -0.9595    7.1919 H   0  0  0  0  0  0  0  0  0  0  0  0
   -5.6009   -2.7085    7.1777 H   0  0  0  0  0  0  0  0  0  0  0  0
    0.1065   -4.6828    8.3385 Si  0  0  0  0  0  4  0  0  0  0  0  0
    0.9040   -5.9070    8.2967 H   0  0  0  0  0  0  0  0  0  0  0  0
   -1.3047   -4.9738    8.0572 H   0  0  0  0  0  0  0  0  0  0  0  0
    0.3350   -3.7843   10.3722 Si  0  0  0  0  0  4  0  0  0  0  0  0
    1.7556   -3.4622   10.5746 H   0  0  0  0  0  0  0  0  0  0  0  0
   -0.1346   -4.7568   11.3793 H   0  0  0  0  0  0  0  0  0  0  0  0
   -6.1009   -0.5007    5.1829 Si  0  0  0  0  0  4  0  0  0  0  0  0
   -5.3371    0.6769    4.6832 H   0  0  0  0  0  0  0  0  0  0  0  0
   -6.7013   -1.2178    4.0465 H   0  0  0  0  0  0  0  0  0  0  0  0
   -0.8962   -1.9166   10.5256 Si  0  0  0  0  0  4  0  0  0  0  0  0
   -0.3574   -1.1178   11.6319 H   0  0  0  0  0  0  0  0  0  0  0  0
   -0.7466   -1.1508    9.2830 H   0  0  0  0  0  0  0  0  0  0  0  0
   -7.7046    0.2021    6.6042 Si  0  0  0  0  0  4  0  0  0  0  0  0
   -8.7645    0.9029    5.9082 H   0  0  0  0  0  0  0  0  0  0  0  0
   -8.2416   -1.0337    7.2414 H   0  0  0  0  0  0  0  0  0  0  0  0
   -6.7222    1.4111    8.1803 Si  0  0  0  0  0  4  0  0  0  0  0  0
   -7.5451    2.5694    8.5325 H   0  0  0  0  0  0  0  0  0  0  0  0
   -6.4627    0.6121    9.3991 H   0  0  0  0  0  0  0  0  0  0  0  0
   -5.4213    1.9207    7.6874 H   0  0  0  0  0  0  0  0  0  0  0  0
   -3.0457   -2.4199   10.8482 Si  0  0  0  0  0  4  0  0  0  0  0  0
   -3.4263   -1.9957   12.2090 H   0  0  0  0  0  0  0  0  0  0  0  0
   -3.9060   -1.7231    9.8711 H   0  0  0  0  0  0  0  0  0  0  0  0
   -3.2619   -3.8675   10.6947 H   0  0  0  0  0  0  0  0  0  0  0  0
  1  2  1  0
  1  5  1  0
  2  3  1  0
  2  4  1  0
  2  8  1  0
  5  6  1  0
  5  7  1  0
  5 11  1  0
  8  9  1  0
  8 10  1  0
  8 17  1  0
 11 12  1  0
 11 13  1  0
 11 14  1  0
 14 15  1  0
 14 16  1  0
 14 23  1  0
 17 18  1  0
 17 19  1  0
 17 20  1  0
 20 21  1  0
 20 22  1  0
 20 26  1  0
 23 24  1  0
 23 25  1  0
 23 29  1  0
 26 27  1  0
 26 28  1  0
 26 36  1  0
 29 30  1  0
 29 31  1  0
 29 32  1  0
 32 33  1  0
 32 34  1  0
 32 35  1  0
 36 37  1  0
 36 38  1  0
 36 39  1  0
M  CHG  1   1   1
M  RAD  1   1   2
M  END
$$$$

     RDKit          3D

 39 38  0  0  0  0  0  0  0  0999 V2000
   -0.2374   -2.0389    3.6248 S   0  0  0  0  0  2  0  0  0  0  0  0
   -0.0065   -1.8496    5.7425 Si  0  0  0  0  0  4  0  0  0  0  0  0
   -1.3248   -1.8695    6.3744 H   0  0  0  0  0  0  0  0  0  0  0  0
    0.6765   -0.5872    6.0232 H   0  0  0  0  0  0  0  0  0  0  0  0
   -2.2075   -2.7985    3.1942 Si  0  0  0  0  0  4  0  0  0  0  0  0
   -3.1322   -1.6611    3.2197 H   0  0  0  0  0  0  0  0  0  0  0  0
   -2.2034   -3.4039    1.8553 H   0  0  0  0  0  0  0  0  0  0  0  0
    1.2285   -3.5169    6.5121 Si  0  0  0  0  0  4  0  0  0  0  0  0
    0.5023   -4.7992    6.4530 H   0  0  0  0  0  0  0  0  0  0  0  0
    2.4576   -3.6265    5.6919 H   0  0  0  0  0  0  0  0  0  0  0  0
   -2.8023   -4.2871    4.7607 Si  0  0  0  0  0  4  0  0  0  0  0  0
   -4.1911   -4.0468    5.1644 H   0  0  0  0  0  0  0  0  0  0  0  0
   -1.9178   -4.1384    5.9277 H   0  0  0  0  0  0  0  0  0  0  0  0
   -2.5876   -6.3278    3.8532 Si  0  0  0  0  0  4  0  0  0  0  0  0
   -1.1751   -6.7436    3.8864 H   0  0  0  0  0  0  0  0  0  0  0  0
   -3.0586   -6.2163    2.4541 H   0  0  0  0  0  0  0  0  0  0  0  0
    1.8860   -3.1643    8.6183 Si  0  0  0  0  0  4  0  0  0  0  0  0
    2.7685   -2.0000    8.6260 H   0  0  0  0  0  0  0  0  0  0  0  0
    2.6610   -4.3571    9.0325 H   0  0  0  0  0  0  0  0  0  0  0  0
    0.1707   -2.8946    9.9884 Si  0  0  0  0  0  4  0  0  0  0  0  0
    0.4641   -3.6059   11.2580 H   0  0  0  0  0  0  0  0  0  0  0  0
   -1.0521   -3.4789    9.4441 H   0  0  0  0  0  0  0  0  0  0  0  0
   -3.9110   -7.7484    4.9334 Si  0  0  0  0  0  4  0  0  0  0  0  0
   -3.4456   -9.1230    4.7653 H   0  0  0  0  0  0  0  0  0  0  0  0
   -5.2605   -7.6665    4.3287 H   0  0  0  0  0  0  0  0  0  0  0  0
   -0.1614   -0.7285   10.4600 Si  0  0  0  0  0  4  0  0  0  0  0  0
    1.1281   -0.0052   10.4499 H   0  0  0  0  0  0  0  0  0  0  0  0
   -0.7271   -0.6052   11.8164 H   0  0  0  0  0  0  0  0  0  0  0  0
   -4.0348   -7.2554    7.1124 Si  0  0  0  0  0  4  0  0  0  0  0  0
   -2.8433   -6.4821    7.4965 H   0  0  0  0  0  0  0  0  0  0  0  0
   -4.1135   -8.4827    7.9352 H   0  0  0  0  0  0  0  0  0  0  0  0
   -5.9020   -6.0704    7.4336 Si  0  0  0  0  0  4  0  0  0  0  0  0
   -5.8019   -5.1952    8.6037 H   0  0  0  0  0  0  0  0  0  0  0  0
   -6.1381   -5.2339    6.2353 H   0  0  0  0  0  0  0  0  0  0  0  0
   -7.0511   -6.9637    7.5593 H   0  0  0  0  0  0  0  0  0  0  0  0
   -1.5356    0.2098    8.9597 Si  0  0  0  0  0  4  0  0  0  0  0  0
   -2.4915   -0.7942    8.4987 H   0  0  0  0  0  0  0  0  0  0  0  0
   -0.7419    0.6686    7.8028 H   0  0  0  0  0  0  0  0  0  0  0  0
   -2.2158    1.3750    9.5568 H   0  0  0  0  0  0  0  0  0  0  0  0
  1  2  1  0
  1  5  1  0
  2  3  1  0
  2  4  1  0
  2  8  1  0
  5  6  1  0
  5  7  1  0
  5 11  1  0
  8  9  1  0
  8 10  1  0
  8 17  1  0
 11 12  1  0
 11 13  1  0
 11 14  1  0
 14 15  1  0
 14 16  1  0
 14 23  1  0
 17 18  1  0
 17 19  1  0
 17 20  1  0
 20 21  1  0
 20 22  1  0
 20 26  1  0
 23 24  1  0
 23 25  1  0
 23 29  1  0
 26 27  1  0
 26 28  1  0
 26 36  1  0
 29 30  1  0
 29 31  1  0
 29 32  1  0
 32 33  1  0
 32 34  1  0
 32 35  1  0
 36 37  1  0
 36 38  1  0
 36 39  1  0
M  CHG  1   1   1
M  RAD  1   1   2
M  END
$$$$

     RDKit          3D

 39 38  0  0  0  0  0  0  0  0999 V2000
   -0.2374   -2.0389    3.6248 S   0  0  0  0  0  2  0  0  0  0  0  0
   -0.6991   -4.1106    3.7946 Si  0  0  0  0  0  4  0  0  0  0  0  0
   -0.6192   -4.6923    2.4229 H   0  0  0  0  0  0  0  0  0  0  0  0
    0.2847   -4.8420    4.5996 H   0  0  0  0  0  0  0  0  0  0  0  0
    0.9746   -1.3201    5.2125 Si  0  0  0  0  0  4  0  0  0  0  0  0
    1.5339   -0.0040    4.7973 H   0  0  0  0  0  0  0  0  0  0  0  0
    2.1364   -2.1903    5.4652 H   0  0  0  0  0  0  0  0  0  0  0  0
   -2.7683   -4.3567    4.5123 Si  0  0  0  0  0  4  0  0  0  0  0  0
   -3.6928   -4.5786    3.3627 H   0  0  0  0  0  0  0  0  0  0  0  0
   -3.2280   -3.0742    5.1215 H   0  0  0  0  0  0  0  0  0  0  0  0
   -0.1836   -0.9893    7.0854 Si  0  0  0  0  0  4  0  0  0  0  0  0
   -0.0934    0.4082    7.5457 H   0  0  0  0  0  0  0  0  0  0  0  0
   -1.5912   -1.3749    6.9191 H   0  0  0  0  0  0  0  0  0  0  0  0
    0.7028   -2.2521    8.7333 Si  0  0  0  0  0  4  0  0  0  0  0  0
    1.6213   -1.4604    9.5496 H   0  0  0  0  0  0  0  0  0  0  0  0
   -0.4079   -2.6960    9.6025 H   0  0  0  0  0  0  0  0  0  0  0  0
   -3.0312   -5.9541    5.9872 Si  0  0  0  0  0  4  0  0  0  0  0  0
   -4.3206   -6.6580    5.7339 H   0  0  0  0  0  0  0  0  0  0  0  0
   -3.1385   -5.4026    7.3477 H   0  0  0  0  0  0  0  0  0  0  0  0
   -1.4251   -7.4747    5.9871 Si  0  0  0  0  0  4  0  0  0  0  0  0
   -0.1693   -6.9690    6.5589 H   0  0  0  0  0  0  0  0  0  0  0  0
   -1.8747   -8.5678    6.8993 H   0  0  0  0  0  0  0  0  0  0  0  0
    1.6923   -3.9808    7.7694 Si  0  0  0  0  0  4  0  0  0  0  0  0
    0.6819   -4.6922    6.9622 H   0  0  0  0  0  0  0  0  0  0  0  0
    2.7906   -3.4659    6.9186 H   0  0  0  0  0  0  0  0  0  0  0  0
   -1.1234   -8.3878    3.9902 Si  0  0  0  0  0  4  0  0  0  0  0  0
   -0.6676   -7.3996    3.0267 H   0  0  0  0  0  0  0  0  0  0  0  0
   -0.1440   -9.4928    4.1469 H   0  0  0  0  0  0  0  0  0  0  0  0
    2.5402   -5.4129    9.2249 Si  0  0  0  0  0  4  0  0  0  0  0  0
    1.4176   -6.1280    9.8834 H   0  0  0  0  0  0  0  0  0  0  0  0
    3.4074   -4.7888   10.2157 H   0  0  0  0  0  0  0  0  0  0  0  0
    3.7203   -6.9509    8.0779 Si  0  0  0  0  0  4  0  0  0  0  0  0
    2.9972   -8.2239    8.0207 H   0  0  0  0  0  0  0  0  0  0  0  0
    5.0698   -7.1128    8.6740 H   0  0  0  0  0  0  0  0  0  0  0  0
    3.9358   -6.5102    6.6893 H   0  0  0  0  0  0  0  0  0  0  0  0
   -3.0513   -9.3466    3.3543 Si  0  0  0  0  0  4  0  0  0  0  0  0
   -4.2038   -8.5855    3.8246 H   0  0  0  0  0  0  0  0  0  0  0  0
   -3.0306   -9.3955    1.8787 H   0  0  0  0  0  0  0  0  0  0  0  0
   -3.1400  -10.7335    3.8526 H   0  0  0  0  0  0  0  0  0  0  0  0
  1  2  1  0
  1  5  1  0
  2  3  1  0
  2  4  1  0
  2  8  1  0
  5  6  1  0
  5  7  1  0
  5 11  1  0
  8  9  1  0
  8 10  1  0
  8 17  1  0
 11 12  1  0
 11 13  1  0
 11 14  1  0
 14 15  1  0
 14 16  1  0
 14 23  1  0
 17 18  1  0
 17 19  1  0
 17 20  1  0
 20 21  1  0
 20 22  1  0
 20 26  1  0
 23 24  1  0
 23 25  1  0
 23 29  1  0
 26 27  1  0
 26 28  1  0
 26 36  1  0
 29 30  1  0
 29 31  1  0
 29 32  1  0
 32 33  1  0
 32 34  1  0
 32 35  1  0
 36 37  1  0
 36 38  1  0
 36 39  1  0
M  CHG  1   1   1
M  RAD  1   1   2
M  END
$$$$

     RDKit          3D

 39 38  0  0  0  0  0  0  0  0999 V2000
   -0.2374   -2.0389    3.6248 S   0  0  0  0  0  2  0  0  0  0  0  0
   -0.3535   -1.6797    5.7298 Si  0  0  0  0  0  4  0  0  0  0  0  0
   -1.6834   -2.0526    6.2094 H   0  0  0  0  0  0  0  0  0  0  0  0
   -0.1016   -0.2597    5.9723 H   0  0  0  0  0  0  0  0  0  0  0  0
   -1.8345   -3.3645    3.0453 Si  0  0  0  0  0  4  0  0  0  0  0  0
   -3.0394   -2.5487    2.8661 H   0  0  0  0  0  0  0  0  0  0  0  0
   -1.4804   -4.0111    1.7742 H   0  0  0  0  0  0  0  0  0  0  0  0
    1.1911   -2.8687    6.7777 Si  0  0  0  0  0  4  0  0  0  0  0  0
    0.8744   -4.3090    6.7515 H   0  0  0  0  0  0  0  0  0  0  0  0
    2.4983   -2.6557    6.1132 H   0  0  0  0  0  0  0  0  0  0  0  0
   -2.1838   -4.8781    4.6610 Si  0  0  0  0  0  4  0  0  0  0  0  0
   -3.6243   -5.0351    4.8837 H   0  0  0  0  0  0  0  0  0  0  0  0
   -1.5415   -4.4157    5.9019 H   0  0  0  0  0  0  0  0  0  0  0  0
   -1.2787   -6.8105    3.9677 Si  0  0  0  0  0  4  0  0  0  0  0  0
    0.1762   -6.7913    4.1956 H   0  0  0  0  0  0  0  0  0  0  0  0
   -1.5716   -6.9154    2.5203 H   0  0  0  0  0  0  0  0  0  0  0  0
    1.4351   -2.2292    8.9046 Si  0  0  0  0  0  4  0  0  0  0  0  0
    1.9406   -0.8585    8.9079 H   0  0  0  0  0  0  0  0  0  0  0  0
    2.4553   -3.1187    9.5071 H   0  0  0  0  0  0  0  0  0  0  0  0
   -0.4522   -2.4034   10.0447 Si  0  0  0  0  0  4  0  0  0  0  0  0
   -0.1400   -2.9300   11.3971 H   0  0  0  0  0  0  0  0  0  0  0  0
   -1.3745   -3.3484    9.4208 H   0  0  0  0  0  0  0  0  0  0  0  0
   -2.2745   -8.4985    5.0145 Si  0  0  0  0  0  4  0  0  0  0  0  0
   -1.4192   -9.6828    5.0221 H   0  0  0  0  0  0  0  0  0  0  0  0
   -3.4986   -8.8477    4.2576 H   0  0  0  0  0  0  0  0  0  0  0  0
   -1.4465   -0.4085   10.2823 Si  0  0  0  0  0  4  0  0  0  0  0  0
   -0.4268    0.6597   10.3526 H   0  0  0  0  0  0  0  0  0  0  0  0
   -2.1990   -0.3859   11.5506 H   0  0  0  0  0  0  0  0  0  0  0  0
   -2.8219   -7.9503    7.1136 Si  0  0  0  0  0  4  0  0  0  0  0  0
   -1.9618   -6.8424    7.5586 H   0  0  0  0  0  0  0  0  0  0  0  0
   -2.6567   -9.1019    8.0279 H   0  0  0  0  0  0  0  0  0  0  0  0
   -4.9745   -7.3501    7.1174 Si  0  0  0  0  0  4  0  0  0  0  0  0
   -5.2841   -6.4242    8.2091 H   0  0  0  0  0  0  0  0  0  0  0  0
   -5.2774   -6.6835    5.8308 H   0  0  0  0  0  0  0  0  0  0  0  0
   -5.8280   -8.5334    7.1922 H   0  0  0  0  0  0  0  0  0  0  0  0
   -2.8188    0.0056    8.5603 Si  0  0  0  0  0  4  0  0  0  0  0  0
   -3.3794   -1.2574    8.0860 H   0  0  0  0  0  0  0  0  0  0  0  0
   -2.0421    0.6159    7.4635 H   0  0  0  0  0  0  0  0  0  0  0  0
   -3.8755    0.9494    8.9719 H   0  0  0  0  0  0  0  0  0  0  0  0
  1  2  1  0
  1  5  1  0
  2  3  1  0
  2  4  1  0
  2  8  1  0
  5  6  1  0
  5  7  1  0
  5 11  1  0
  8  9  1  0
  8 10  1  0
  8 17  1  0
 11 12  1  0
 11 13  1  0
 11 14  1  0
 14 15  1  0
 14 16  1  0
 14 23  1  0
 17 18  1  0
 17 19  1  0
 17 20  1  0
 20 21  1  0
 20 22  1  0
 20 26  1  0
 23 24  1  0
 23 25  1  0
 23 29  1  0
 26 27  1  0
 26 28  1  0
 26 36  1  0
 29 30  1  0
 29 31  1  0
 29 32  1  0
 32 33  1  0
 32 34  1  0
 32 35  1  0
 36 37  1  0
 36 38  1  0
 36 39  1  0
M  CHG  1   1   1
M  RAD  1   1   2
M  END
$$$$
