
     RDKit          3D

 39 38  0  0  0  0  0  0  0  0999 V2000
    1.5501   -1.7759   -2.8991 S   0  0  0  0  0  2  0  0  0  0  0  0
    3.2459   -1.2414   -4.1238 Si  0  0  0  0  0  4  0  0  0  0  0  0
    3.7314   -2.5067   -4.7205 H   0  0  0  0  0  0  0  0  0  0  0  0
    4.2660   -0.5465   -3.3667 H   0  0  0  0  0  0  0  0  0  0  0  0
   -0.0105   -2.5385   -4.1105 Si  0  0  0  0  0  4  0  0  0  0  0  0
   -0.7033   -1.4139   -4.8011 H   0  0  0  0  0  0  0  0  0  0  0  0
   -1.0321   -3.1757   -3.2498 H   0  0  0  0  0  0  0  0  0  0  0  0
    2.4958    0.0069   -5.8459 Si  0  0  0  0  0  4  0  0  0  0  0  0
    1.7217    1.0953   -5.2748 H   0  0  0  0  0  0  0  0  0  0  0  0
    1.6489   -0.9178   -6.6530 H   0  0  0  0  0  0  0  0  0  0  0  0
    0.6746   -3.9617   -5.6458 Si  0  0  0  0  0  4  0  0  0  0  0  0
    1.0972   -3.2944   -6.8899 H   0  0  0  0  0  0  0  0  0  0  0  0
   -0.4822   -4.8221   -6.0251 H   0  0  0  0  0  0  0  0  0  0  0  0
    2.3329   -5.2580   -4.9603 Si  0  0  0  0  0  4  0  0  0  0  0  0
    1.7269   -6.4995   -4.3986 H   0  0  0  0  0  0  0  0  0  0  0  0
    3.1114   -4.6620   -3.8667 H   0  0  0  0  0  0  0  0  0  0  0  0
    4.1715    0.7208   -7.0953 Si  0  0  0  0  0  4  0  0  0  0  0  0
    4.3983   -0.1920   -8.2459 H   0  0  0  0  0  0  0  0  0  0  0  0
    5.4149    0.6264   -6.2768 H   0  0  0  0  0  0  0  0  0  0  0  0
    3.9443    2.8236   -7.7320 Si  0  0  0  0  0  4  0  0  0  0  0  0
    4.2152    3.7047   -6.5762 H   0  0  0  0  0  0  0  0  0  0  0  0
    4.9464    3.0905   -8.7971 H   0  0  0  0  0  0  0  0  0  0  0  0
    3.6015   -5.8683   -6.6764 Si  0  0  0  0  0  4  0  0  0  0  0  0
    2.7615   -6.0120   -7.8670 H   0  0  0  0  0  0  0  0  0  0  0  0
    4.2570   -7.1581   -6.4426 H   0  0  0  0  0  0  0  0  0  0  0  0
    1.9464    3.2946   -8.5254 Si  0  0  0  0  0  4  0  0  0  0  0  0
    1.7639    4.7741   -8.4802 H   0  0  0  0  0  0  0  0  0  0  0  0
    1.7675    2.9075   -9.9298 H   0  0  0  0  0  0  0  0  0  0  0  0
    5.1748   -4.3555   -7.1296 Si  0  0  0  0  0  4  0  0  0  0  0  0
    5.9633   -4.8679   -8.2640 H   0  0  0  0  0  0  0  0  0  0  0  0
    4.5485   -3.1073   -7.5738 H   0  0  0  0  0  0  0  0  0  0  0  0
    6.5597   -4.0576   -5.4196 Si  0  0  0  0  0  4  0  0  0  0  0  0
    6.4640   -2.6238   -5.0212 H   0  0  0  0  0  0  0  0  0  0  0  0
    7.9559   -4.2952   -5.7686 H   0  0  0  0  0  0  0  0  0  0  0  0
    6.1408   -4.8250   -4.2276 H   0  0  0  0  0  0  0  0  0  0  0  0
    0.3042    2.4050   -7.3110 Si  0  0  0  0  0  4  0  0  0  0  0  0
   -0.9755    2.8482   -7.9204 H   0  0  0  0  0  0  0  0  0  0  0  0
    0.3754    2.9640   -5.9578 H   0  0  0  0  0  0  0  0  0  0  0  0
    0.3131    0.9557   -7.3388 H   0  0  0  0  0  0  0  0  0  0  0  0
  1  2  1  0
  1  5  1  0
  2  3  1  0
  2  4  1  0
  2  8  1  0
  5  6  1  0
  5  7  1  0
  5 11  1  0
  8  9  1  0
  8 10  1  0
  8 17  1  0
 11 12  1  0
 11 13  1  0
 11 14  1  0
 14 15  1  0
 14 16  1  0
 14 23  1  0
 17 18  1  0
 17 19  1  0
 17 20  1  0
 20 21  1  0
 20 22  1  0
 20 26  1  0
 23 24  1  0
 23 25  1  0
 23 29  1  0
 26 27  1  0
 26 28  1  0
 26 36  1  0
 29 30  1  0
 29 31  1  0
 29 32  1  0
 32 33  1  0
 32 34  1  0
 32 35  1  0
 36 37  1  0
 36 38  1  0
 36 39  1  0
M  CHG  1   1   1
M  RAD  1   1   2
M  END
$$$$

     RDKit          3D

 39 38  0  0  0  0  0  0  0  0999 V2000
    1.5501   -1.7759   -2.8991 S   0  0  0  0  0  2  0  0  0  0  0  0
    3.2611   -1.2580   -4.1097 Si  0  0  0  0  0  4  0  0  0  0  0  0
    3.7313   -2.5261   -4.7128 H   0  0  0  0  0  0  0  0  0  0  0  0
    4.2869   -0.5840   -3.3414 H   0  0  0  0  0  0  0  0  0  0  0  0
   -0.0143   -2.5062   -4.1253 Si  0  0  0  0  0  4  0  0  0  0  0  0
   -0.6861   -1.3664   -4.8118 H   0  0  0  0  0  0  0  0  0  0  0  0
   -1.0505   -3.1342   -3.2754 H   0  0  0  0  0  0  0  0  0  0  0  0
    2.5402    0.0138   -5.8271 Si  0  0  0  0  0  4  0  0  0  0  0  0
    1.7790    1.1095   -5.2527 H   0  0  0  0  0  0  0  0  0  0  0  0
    1.6845   -0.8922   -6.6460 H   0  0  0  0  0  0  0  0  0  0  0  0
    0.6587   -3.9284   -5.6669 Si  0  0  0  0  0  4  0  0  0  0  0  0
    1.0988   -3.2584   -6.9036 H   0  0  0  0  0  0  0  0  0  0  0  0
   -0.5085   -4.7686   -6.0594 H   0  0  0  0  0  0  0  0  0  0  0  0
    2.2932   -5.2543   -4.9811 Si  0  0  0  0  0  4  0  0  0  0  0  0
    1.6653   -6.4907   -4.4322 H   0  0  0  0  0  0  0  0  0  0  0  0
    3.0739   -4.6780   -3.8785 H   0  0  0  0  0  0  0  0  0  0  0  0
    4.2339    0.7116   -7.0611 Si  0  0  0  0  0  4  0  0  0  0  0  0
    4.4540   -0.1961   -8.2171 H   0  0  0  0  0  0  0  0  0  0  0  0
    5.4708    0.5926   -6.2360 H   0  0  0  0  0  0  0  0  0  0  0  0
    4.0420    2.8220   -7.6838 Si  0  0  0  0  0  4  0  0  0  0  0  0
    4.3191    3.6906   -6.5200 H   0  0  0  0  0  0  0  0  0  0  0  0
    5.0545    3.0816   -8.7409 H   0  0  0  0  0  0  0  0  0  0  0  0
    3.5630   -5.8711   -6.6941 Si  0  0  0  0  0  4  0  0  0  0  0  0
    2.7282   -5.9936   -7.8906 H   0  0  0  0  0  0  0  0  0  0  0  0
    4.1977   -7.1723   -6.4657 H   0  0  0  0  0  0  0  0  0  0  0  0
    2.0563    3.3287   -8.4856 Si  0  0  0  0  0  4  0  0  0  0  0  0
    1.8957    4.8104   -8.4306 H   0  0  0  0  0  0  0  0  0  0  0  0
    1.8801    2.9545   -9.8938 H   0  0  0  0  0  0  0  0  0  0  0  0
    5.1614   -4.3788   -7.1268 Si  0  0  0  0  0  4  0  0  0  0  0  0
    5.9491   -4.8947   -8.2602 H   0  0  0  0  0  0  0  0  0  0  0  0
    4.5566   -3.1182   -7.5655 H   0  0  0  0  0  0  0  0  0  0  0  0
    6.5402   -4.1142   -5.4063 Si  0  0  0  0  0  4  0  0  0  0  0  0
    6.4636   -2.6820   -4.9981 H   0  0  0  0  0  0  0  0  0  0  0  0
    7.9348   -4.3701   -5.7488 H   0  0  0  0  0  0  0  0  0  0  0  0
    6.1027   -4.8837   -4.2226 H   0  0  0  0  0  0  0  0  0  0  0  0
    0.3936    2.4551   -7.2876 Si  0  0  0  0  0  4  0  0  0  0  0  0
   -0.8756    2.9218   -7.9013 H   0  0  0  0  0  0  0  0  0  0  0  0
    0.4649    3.0031   -5.9299 H   0  0  0  0  0  0  0  0  0  0  0  0
    0.3811    1.0061   -7.3259 H   0  0  0  0  0  0  0  0  0  0  0  0
  1  2  1  0
  1  5  1  0
  2  3  1  0
  2  4  1  0
  2  8  1  0
  5  6  1  0
  5  7  1  0
  5 11  1  0
  8  9  1  0
  8 10  1  0
  8 17  1  0
 11 12  1  0
 11 13  1  0
 11 14  1  0
 14 15  1  0
 14 16  1  0
 14 23  1  0
 17 18  1  0
 17 19  1  0
 17 20  1  0
 20 21  1  0
 20 22  1  0
 20 26  1  0
 23 24  1  0
 23 25  1  0
 23 29  1  0
 26 27  1  0
 26 28  1  0
 26 36  1  0
 29 30  1  0
 29 31  1  0
 29 32  1  0
 32 33  1  0
 32 34  1  0
 32 35  1  0
 36 37  1  0
 36 38  1  0
 36 39  1  0
M  CHG  1   1   1
M  RAD  1   1   2
M  END
$$$$

     RDKit          3D

 39 38  0  0  0  0  0  0  0  0999 V2000
    1.5501   -1.7759   -2.8991 S   0  0  0  0  0  2  0  0  0  0  0  0
    1.1142   -1.6239   -5.0082 Si  0  0  0  0  0  4  0  0  0  0  0  0
    2.4243   -1.6590   -5.6977 H   0  0  0  0  0  0  0  0  0  0  0  0
    0.3440   -0.4381   -5.3202 H   0  0  0  0  0  0  0  0  0  0  0  0
    2.4342   -3.6523   -2.4724 Si  0  0  0  0  0  4  0  0  0  0  0  0
    1.3836   -4.7096   -2.4606 H   0  0  0  0  0  0  0  0  0  0  0  0
    2.9993   -3.6280   -1.1048 H   0  0  0  0  0  0  0  0  0  0  0  0
    0.0352   -3.5028   -5.6340 Si  0  0  0  0  0  4  0  0  0  0  0  0
   -1.0937   -3.6629   -4.7340 H   0  0  0  0  0  0  0  0  0  0  0  0
    1.0374   -4.5953   -5.4732 H   0  0  0  0  0  0  0  0  0  0  0  0
    3.9853   -4.2499   -3.9177 Si  0  0  0  0  0  4  0  0  0  0  0  0
    3.4305   -4.9573   -5.0855 H   0  0  0  0  0  0  0  0  0  0  0  0
    4.8871   -5.2291   -3.2467 H   0  0  0  0  0  0  0  0  0  0  0  0
    5.1986   -2.5505   -4.6526 Si  0  0  0  0  0  4  0  0  0  0  0  0
    6.3891   -2.4331   -3.7621 H   0  0  0  0  0  0  0  0  0  0  0  0
    4.4982   -1.2630   -4.5570 H   0  0  0  0  0  0  0  0  0  0  0  0
   -0.5768   -3.3959   -7.7535 Si  0  0  0  0  0  4  0  0  0  0  0  0
    0.4351   -4.0433   -8.6285 H   0  0  0  0  0  0  0  0  0  0  0  0
   -0.5687   -1.9586   -8.1521 H   0  0  0  0  0  0  0  0  0  0  0  0
   -2.6105   -4.1806   -8.1098 Si  0  0  0  0  0  4  0  0  0  0  0  0
   -3.5958   -3.2005   -7.6056 H   0  0  0  0  0  0  0  0  0  0  0  0
   -2.7881   -4.3434   -9.5768 H   0  0  0  0  0  0  0  0  0  0  0  0
    5.9515   -2.9621   -6.6998 Si  0  0  0  0  0  4  0  0  0  0  0  0
    6.2108   -4.3966   -6.8363 H   0  0  0  0  0  0  0  0  0  0  0  0
    7.2086   -2.2600   -6.9732 H   0  0  0  0  0  0  0  0  0  0  0  0
   -2.9890   -6.1220   -7.1453 Si  0  0  0  0  0  4  0  0  0  0  0  0
   -4.4647   -6.3184   -7.0565 H   0  0  0  0  0  0  0  0  0  0  0  0
   -2.4737   -7.2654   -7.9077 H   0  0  0  0  0  0  0  0  0  0  0  0
    4.4722   -2.3840   -8.2639 Si  0  0  0  0  0  4  0  0  0  0  0  0
    5.0789   -2.6807   -9.5735 H   0  0  0  0  0  0  0  0  0  0  0  0
    3.2754   -3.2218   -8.1478 H   0  0  0  0  0  0  0  0  0  0  0  0
    4.0070   -0.2134   -8.2073 Si  0  0  0  0  0  4  0  0  0  0  0  0
    2.5437   -0.0842   -7.9508 H   0  0  0  0  0  0  0  0  0  0  0  0
    4.2628    0.4578   -9.4768 H   0  0  0  0  0  0  0  0  0  0  0  0
    4.6661    0.4647   -7.0712 H   0  0  0  0  0  0  0  0  0  0  0  0
   -2.1992   -6.2201   -5.0646 Si  0  0  0  0  0  4  0  0  0  0  0  0
   -2.5734   -7.5503   -4.5204 H   0  0  0  0  0  0  0  0  0  0  0  0
   -2.8800   -5.1987   -4.2633 H   0  0  0  0  0  0  0  0  0  0  0  0
   -0.7536   -6.1267   -5.0125 H   0  0  0  0  0  0  0  0  0  0  0  0
  1  2  1  0
  1  5  1  0
  2  3  1  0
  2  4  1  0
  2  8  1  0
  5  6  1  0
  5  7  1  0
  5 11  1  0
  8  9  1  0
  8 10  1  0
  8 17  1  0
 11 12  1  0
 11 13  1  0
 11 14  1  0
 14 15  1  0
 14 16  1  0
 14 23  1  0
 17 18  1  0
 17 19  1  0
 17 20  1  0
 20 21  1  0
 20 22  1  0
 20 26  1  0
 23 24  1  0
 23 25  1  0
 23 29  1  0
 26 27  1  0
 26 28  1  0
 26 36  1  0
 29 30  1  0
 29 31  1  0
 29 32  1  0
 32 33  1  0
 32 34  1  0
 32 35  1  0
 36 37  1  0
 36 38  1  0
 36 39  1  0
M  CHG  1   1   1
M  RAD  1   1   2
M  END
$$$$

     RDKit          3D

 39 38  0  0  0  0  0  0  0  0999 V2000
    1.5501   -1.7759   -2.8991 S   0  0  0  0  0  2  0  0  0  0  0  0
    1.4943   -3.6954   -3.8516 Si  0  0  0  0  0  4  0  0  0  0  0  0
    0.3825   -4.4760   -3.3335 H   0  0  0  0  0  0  0  0  0  0  0  0
    2.7379   -4.4201   -3.5007 H   0  0  0  0  0  0  0  0  0  0  0  0
    3.4355   -0.7951   -3.2725 Si  0  0  0  0  0  4  0  0  0  0  0  0
    3.1128    0.4964   -3.9222 H   0  0  0  0  0  0  0  0  0  0  0  0
    4.1382   -0.4944   -2.0210 H   0  0  0  0  0  0  0  0  0  0  0  0
    1.3554   -3.5258   -6.0587 Si  0  0  0  0  0  4  0  0  0  0  0  0
    0.2996   -4.4210   -6.5605 H   0  0  0  0  0  0  0  0  0  0  0  0
    2.6023   -3.9167   -6.7320 H   0  0  0  0  0  0  0  0  0  0  0  0
    4.6232   -2.0749   -4.6363 Si  0  0  0  0  0  4  0  0  0  0  0  0
    4.0269   -1.9802   -5.9847 H   0  0  0  0  0  0  0  0  0  0  0  0
    4.4658   -3.4862   -4.2141 H   0  0  0  0  0  0  0  0  0  0  0  0
    6.7631   -1.4712   -4.7103 Si  0  0  0  0  0  4  0  0  0  0  0  0
    7.0233   -0.2408   -3.9720 H   0  0  0  0  0  0  0  0  0  0  0  0
    7.5453   -2.5488   -4.0438 H   0  0  0  0  0  0  0  0  0  0  0  0
    0.8437   -1.4240   -6.6622 Si  0  0  0  0  0  4  0  0  0  0  0  0
   -0.5499   -1.1563   -6.2529 H   0  0  0  0  0  0  0  0  0  0  0  0
    1.7142   -0.5361   -5.8613 H   0  0  0  0  0  0  0  0  0  0  0  0
    1.1512   -1.1185   -8.8363 Si  0  0  0  0  0  4  0  0  0  0  0  0
    0.3537    0.0357   -9.2725 H   0  0  0  0  0  0  0  0  0  0  0  0
    0.7062   -2.3087   -9.5828 H   0  0  0  0  0  0  0  0  0  0  0  0
    7.4164   -1.3760   -6.8263 Si  0  0  0  0  0  4  0  0  0  0  0  0
    6.2425   -1.4881   -7.7354 H   0  0  0  0  0  0  0  0  0  0  0  0
    8.2905   -2.5237   -7.1719 H   0  0  0  0  0  0  0  0  0  0  0  0
    3.3037   -0.7964   -9.2956 Si  0  0  0  0  0  4  0  0  0  0  0  0
    4.0802   -1.9146   -8.7500 H   0  0  0  0  0  0  0  0  0  0  0  0
    3.5210   -0.7600  -10.7401 H   0  0  0  0  0  0  0  0  0  0  0  0
    8.4890    0.4838   -7.3189 Si  0  0  0  0  0  4  0  0  0  0  0  0
    9.9535    0.2693   -7.3164 H   0  0  0  0  0  0  0  0  0  0  0  0
    8.1335    0.9324   -8.6929 H   0  0  0  0  0  0  0  0  0  0  0  0
    8.0177    2.1515   -5.9322 Si  0  0  0  0  0  4  0  0  0  0  0  0
    6.7406    2.8178   -6.2786 H   0  0  0  0  0  0  0  0  0  0  0  0
    9.0676    3.1931   -6.1204 H   0  0  0  0  0  0  0  0  0  0  0  0
    8.0452    1.7388   -4.5253 H   0  0  0  0  0  0  0  0  0  0  0  0
    4.0383    1.1071   -8.3725 Si  0  0  0  0  0  4  0  0  0  0  0  0
    3.0527    2.1797   -8.6360 H   0  0  0  0  0  0  0  0  0  0  0  0
    5.2973    1.4763   -9.0496 H   0  0  0  0  0  0  0  0  0  0  0  0
    4.2615    0.9360   -6.9360 H   0  0  0  0  0  0  0  0  0  0  0  0
  1  2  1  0
  1  5  1  0
  2  3  1  0
  2  4  1  0
  2  8  1  0
  5  6  1  0
  5  7  1  0
  5 11  1  0
  8  9  1  0
  8 10  1  0
  8 17  1  0
 11 12  1  0
 11 13  1  0
 11 14  1  0
 14 15  1  0
 14 16  1  0
 14 23  1  0
 17 18  1  0
 17 19  1  0
 17 20  1  0
 20 21  1  0
 20 22  1  0
 20 26  1  0
 23 24  1  0
 23 25  1  0
 23 29  1  0
 26 27  1  0
 26 28  1  0
 26 36  1  0
 29 30  1  0
 29 31  1  0
 29 32  1  0
 32 33  1  0
 32 34  1  0
 32 35  1  0
 36 37  1  0
 36 38  1  0
 36 39  1  0
M  CHG  1   1   1
M  RAD  1   1   2
M  END
$$$$

     RDKit          3D

 39 38  0  0  0  0  0  0  0  0999 V2000
    1.5501   -1.7759   -2.8991 S   0  0  0  0  0  2  0  0  0  0  0  0
    1.9626   -1.5480   -4.9865 Si  0  0  0  0  0  4  0  0  0  0  0  0
    3.4089   -1.6735   -5.2666 H   0  0  0  0  0  0  0  0  0  0  0  0
    1.5533   -0.1979   -5.4223 H   0  0  0  0  0  0  0  0  0  0  0  0
    2.5295   -3.5967   -2.2535 Si  0  0  0  0  0  4  0  0  0  0  0  0
    2.6925   -3.4784   -0.7925 H   0  0  0  0  0  0  0  0  0  0  0  0
    1.6199   -4.7023   -2.5382 H   0  0  0  0  0  0  0  0  0  0  0  0
    0.8117   -3.1274   -6.1000 Si  0  0  0  0  0  4  0  0  0  0  0  0
    1.7263   -4.2098   -6.5341 H   0  0  0  0  0  0  0  0  0  0  0  0
   -0.2891   -3.6492   -5.3140 H   0  0  0  0  0  0  0  0  0  0  0  0
    4.4889   -3.8012   -3.2796 Si  0  0  0  0  0  4  0  0  0  0  0  0
    5.5299   -3.9645   -2.2456 H   0  0  0  0  0  0  0  0  0  0  0  0
    4.8149   -2.6153   -4.0990 H   0  0  0  0  0  0  0  0  0  0  0  0
    4.5639   -5.5940   -4.5940 Si  0  0  0  0  0  4  0  0  0  0  0  0
    4.1904   -6.7660   -3.7623 H   0  0  0  0  0  0  0  0  0  0  0  0
    3.6171   -5.5210   -5.7018 H   0  0  0  0  0  0  0  0  0  0  0  0
    0.0804   -2.1442   -7.9956 Si  0  0  0  0  0  4  0  0  0  0  0  0
   -0.7123   -0.9845   -7.6005 H   0  0  0  0  0  0  0  0  0  0  0  0
   -0.6575   -3.1017   -8.8131 H   0  0  0  0  0  0  0  0  0  0  0  0
    1.9551   -1.4726   -9.0580 Si  0  0  0  0  0  4  0  0  0  0  0  0
    1.6519   -1.0413  -10.4082 H   0  0  0  0  0  0  0  0  0  0  0  0
    2.5718   -0.4385   -8.2285 H   0  0  0  0  0  0  0  0  0  0  0  0
    6.6555   -5.9051   -5.2742 Si  0  0  0  0  0  4  0  0  0  0  0  0
    7.5537   -5.5021   -4.1974 H   0  0  0  0  0  0  0  0  0  0  0  0
    6.9064   -7.3227   -5.5568 H   0  0  0  0  0  0  0  0  0  0  0  0
    3.3275   -3.2603   -9.0439 Si  0  0  0  0  0  4  0  0  0  0  0  0
    4.4245   -3.1010   -9.9752 H   0  0  0  0  0  0  0  0  0  0  0  0
    3.8440   -3.4217   -7.6624 H   0  0  0  0  0  0  0  0  0  0  0  0
    7.1300   -4.7408   -7.1021 Si  0  0  0  0  0  4  0  0  0  0  0  0
    6.0749   -4.8385   -8.1209 H   0  0  0  0  0  0  0  0  0  0  0  0
    8.3451   -5.3469   -7.7115 H   0  0  0  0  0  0  0  0  0  0  0  0
    7.6150   -2.6117   -6.6260 Si  0  0  0  0  0  4  0  0  0  0  0  0
    6.5349   -1.7268   -7.0670 H   0  0  0  0  0  0  0  0  0  0  0  0
    8.8796   -2.1998   -7.2464 H   0  0  0  0  0  0  0  0  0  0  0  0
    7.7854   -2.4787   -5.1718 H   0  0  0  0  0  0  0  0  0  0  0  0
    2.0866   -5.0711   -9.4848 Si  0  0  0  0  0  4  0  0  0  0  0  0
    0.6543   -4.7647   -9.2514 H   0  0  0  0  0  0  0  0  0  0  0  0
    2.4220   -6.1880   -8.5965 H   0  0  0  0  0  0  0  0  0  0  0  0
    2.2744   -5.5105  -10.8794 H   0  0  0  0  0  0  0  0  0  0  0  0
  1  2  1  0
  1  5  1  0
  2  3  1  0
  2  4  1  0
  2  8  1  0
  5  6  1  0
  5  7  1  0
  5 11  1  0
  8  9  1  0
  8 10  1  0
  8 17  1  0
 11 12  1  0
 11 13  1  0
 11 14  1  0
 14 15  1  0
 14 16  1  0
 14 23  1  0
 17 18  1  0
 17 19  1  0
 17 20  1  0
 20 21  1  0
 20 22  1  0
 20 26  1  0
 23 24  1  0
 23 25  1  0
 23 29  1  0
 26 27  1  0
 26 28  1  0
 26 36  1  0
 29 30  1  0
 29 31  1  0
 29 32  1  0
 32 33  1  0
 32 34  1  0
 32 35  1  0
 36 37  1  0
 36 38  1  0
 36 39  1  0
M  CHG  1   1   1
M  RAD  1   1   2
M  END
$$$$

     RDKit          3D

 39 38  0  0  0  0  0  0  0  0999 V2000
    1.5501   -1.7759   -2.8991 S   0  0  0  0  0  2  0  0  0  0  0  0
    1.0373   -1.7471   -4.9961 Si  0  0  0  0  0  4  0  0  0  0  0  0
    2.3235   -1.7040   -5.7287 H   0  0  0  0  0  0  0  0  0  0  0  0
    0.1622   -0.6419   -5.3269 H   0  0  0  0  0  0  0  0  0  0  0  0
    2.5993   -3.5549   -2.4311 Si  0  0  0  0  0  4  0  0  0  0  0  0
    1.6407   -4.6928   -2.3421 H   0  0  0  0  0  0  0  0  0  0  0  0
    3.2030   -3.4281   -1.0859 H   0  0  0  0  0  0  0  0  0  0  0  0
    0.0984   -3.7320   -5.5112 Si  0  0  0  0  0  4  0  0  0  0  0  0
   -0.9847   -3.9461   -4.5672 H   0  0  0  0  0  0  0  0  0  0  0  0
    1.1920   -4.7317   -5.3431 H   0  0  0  0  0  0  0  0  0  0  0  0
    4.1485   -4.0834   -3.9051 Si  0  0  0  0  0  4  0  0  0  0  0  0
    3.6178   -4.8813   -5.0248 H   0  0  0  0  0  0  0  0  0  0  0  0
    5.1489   -4.9574   -3.2285 H   0  0  0  0  0  0  0  0  0  0  0  0
    5.1934   -2.3227   -4.7467 Si  0  0  0  0  0  4  0  0  0  0  0  0
    6.3974   -2.0721   -3.9031 H   0  0  0  0  0  0  0  0  0  0  0  0
    4.3922   -1.0936   -4.6767 H   0  0  0  0  0  0  0  0  0  0  0  0
   -0.5865   -3.7629   -7.6108 Si  0  0  0  0  0  4  0  0  0  0  0  0
    0.4476   -4.3614   -8.4946 H   0  0  0  0  0  0  0  0  0  0  0  0
   -0.7098   -2.3474   -8.0646 H   0  0  0  0  0  0  0  0  0  0  0  0
   -2.5585   -4.7246   -7.8659 Si  0  0  0  0  0  4  0  0  0  0  0  0
   -3.6052   -3.8080   -7.3661 H   0  0  0  0  0  0  0  0  0  0  0  0
   -2.7679   -4.9619   -9.3184 H   0  0  0  0  0  0  0  0  0  0  0  0
    5.9133   -2.7558   -6.8012 Si  0  0  0  0  0  4  0  0  0  0  0  0
    6.2860   -4.1689   -6.8911 H   0  0  0  0  0  0  0  0  0  0  0  0
    7.0988   -1.9657   -7.1449 H   0  0  0  0  0  0  0  0  0  0  0  0
   -2.7447   -6.6489   -6.8146 Si  0  0  0  0  0  4  0  0  0  0  0  0
   -4.1956   -6.9609   -6.6673 H   0  0  0  0  0  0  0  0  0  0  0  0
   -2.1607   -7.7770   -7.5497 H   0  0  0  0  0  0  0  0  0  0  0  0
    4.3430   -2.3652   -8.3344 Si  0  0  0  0  0  4  0  0  0  0  0  0
    4.9308   -2.6655   -9.6518 H   0  0  0  0  0  0  0  0  0  0  0  0
    3.2238   -3.2922   -8.1446 H   0  0  0  0  0  0  0  0  0  0  0  0
    3.7018   -0.2393   -8.3456 Si  0  0  0  0  0  4  0  0  0  0  0  0
    2.2416   -0.2191   -8.0437 H   0  0  0  0  0  0  0  0  0  0  0  0
    3.8613    0.3975   -9.6482 H   0  0  0  0  0  0  0  0  0  0  0  0
    4.3378    0.5366   -7.2600 H   0  0  0  0  0  0  0  0  0  0  0  0
   -1.8847   -6.5963   -4.7602 Si  0  0  0  0  0  4  0  0  0  0  0  0
   -2.1303   -7.9289   -4.1525 H   0  0  0  0  0  0  0  0  0  0  0  0
   -2.6222   -5.6014   -3.9760 H   0  0  0  0  0  0  0  0  0  0  0  0
   -0.4508   -6.3834   -4.7619 H   0  0  0  0  0  0  0  0  0  0  0  0
  1  2  1  0
  1  5  1  0
  2  3  1  0
  2  4  1  0
  2  8  1  0
  5  6  1  0
  5  7  1  0
  5 11  1  0
  8  9  1  0
  8 10  1  0
  8 17  1  0
 11 12  1  0
 11 13  1  0
 11 14  1  0
 14 15  1  0
 14 16  1  0
 14 23  1  0
 17 18  1  0
 17 19  1  0
 17 20  1  0
 20 21  1  0
 20 22  1  0
 20 26  1  0
 23 24  1  0
 23 25  1  0
 23 29  1  0
 26 27  1  0
 26 28  1  0
 26 36  1  0
 29 30  1  0
 29 31  1  0
 29 32  1  0
 32 33  1  0
 32 34  1  0
 32 35  1  0
 36 37  1  0
 36 38  1  0
 36 39  1  0
M  CHG  1   1   1
M  RAD  1   1   2
M  END
$$$$
