
     RDKit          3D

 39 38  0  0  0  0  0  0  0  0999 V2000
    0.4503   -0.1603   -3.6536 S   0  0  0  0  0  2  0  0  0  0  0  0
    2.0910   -0.4992   -5.0074 Si  0  0  0  0  0  4  0  0  0  0  0  0
    3.3332   -0.3531   -4.1942 H   0  0  0  0  0  0  0  0  0  0  0  0
    2.1562    0.5231   -6.0469 H   0  0  0  0  0  0  0  0  0  0  0  0
   -0.9928    1.1801   -4.5143 Si  0  0  0  0  0  4  0  0  0  0  0  0
   -1.1031    2.3843   -3.6759 H   0  0  0  0  0  0  0  0  0  0  0  0
   -2.2976    0.5159   -4.4947 H   0  0  0  0  0  0  0  0  0  0  0  0
    2.0613   -2.5622   -5.8093 Si  0  0  0  0  0  4  0  0  0  0  0  0
    3.4169   -2.9897   -6.1405 H   0  0  0  0  0  0  0  0  0  0  0  0
    1.5206   -3.4525   -4.7498 H   0  0  0  0  0  0  0  0  0  0  0  0
   -0.3569    1.6513   -6.5910 Si  0  0  0  0  0  4  0  0  0  0  0  0
    0.4192    0.5246   -7.1165 H   0  0  0  0  0  0  0  0  0  0  0  0
    0.3986    2.9027   -6.5639 H   0  0  0  0  0  0  0  0  0  0  0  0
   -2.1268    1.9408   -7.9363 Si  0  0  0  0  0  4  0  0  0  0  0  0
   -1.6051    2.3136   -9.2599 H   0  0  0  0  0  0  0  0  0  0  0  0
   -2.9642    3.0582   -7.4720 H   0  0  0  0  0  0  0  0  0  0  0  0
    0.7589   -2.7704   -7.5912 Si  0  0  0  0  0  4  0  0  0  0  0  0
    0.4779   -4.2243   -7.7679 H   0  0  0  0  0  0  0  0  0  0  0  0
   -0.5445   -2.1285   -7.3942 H   0  0  0  0  0  0  0  0  0  0  0  0
    1.7657   -2.0782   -9.4526 Si  0  0  0  0  0  4  0  0  0  0  0  0
    2.3231   -3.1988  -10.2179 H   0  0  0  0  0  0  0  0  0  0  0  0
    2.8969   -1.2099   -9.0735 H   0  0  0  0  0  0  0  0  0  0  0  0
   -3.3026    0.0360   -8.0533 Si  0  0  0  0  0  4  0  0  0  0  0  0
   -2.6797   -1.0223   -7.2618 H   0  0  0  0  0  0  0  0  0  0  0  0
   -3.3686   -0.3737   -9.4683 H   0  0  0  0  0  0  0  0  0  0  0  0
    0.3844   -0.9344  -10.7658 Si  0  0  0  0  0  4  0  0  0  0  0  0
    1.1967   -0.2329  -11.7847 H   0  0  0  0  0  0  0  0  0  0  0  0
   -0.3768    0.0726  -10.0371 H   0  0  0  0  0  0  0  0  0  0  0  0
   -5.3704    0.4183   -7.2746 Si  0  0  0  0  0  4  0  0  0  0  0  0
   -5.6954   -0.5222   -6.1814 H   0  0  0  0  0  0  0  0  0  0  0  0
   -6.3360    0.2047   -8.3714 H   0  0  0  0  0  0  0  0  0  0  0  0
   -5.5254    2.5141   -6.5193 Si  0  0  0  0  0  4  0  0  0  0  0  0
   -6.7222    2.6561   -5.6808 H   0  0  0  0  0  0  0  0  0  0  0  0
   -5.5974    3.4437   -7.6691 H   0  0  0  0  0  0  0  0  0  0  0  0
   -4.2962    2.8545   -5.7723 H   0  0  0  0  0  0  0  0  0  0  0  0
   -1.0373   -2.2634  -11.8392 Si  0  0  0  0  0  4  0  0  0  0  0  0
   -2.1175   -2.7302  -10.9513 H   0  0  0  0  0  0  0  0  0  0  0  0
   -1.6730   -1.4678  -12.9140 H   0  0  0  0  0  0  0  0  0  0  0  0
   -0.3523   -3.3868  -12.4853 H   0  0  0  0  0  0  0  0  0  0  0  0
  1  2  1  0
  1  5  1  0
  2  3  1  0
  2  4  1  0
  2  8  1  0
  5  6  1  0
  5  7  1  0
  5 11  1  0
  8  9  1  0
  8 10  1  0
  8 17  1  0
 11 12  1  0
 11 13  1  0
 11 14  1  0
 14 15  1  0
 14 16  1  0
 14 23  1  0
 17 18  1  0
 17 19  1  0
 17 20  1  0
 20 21  1  0
 20 22  1  0
 20 26  1  0
 23 24  1  0
 23 25  1  0
 23 29  1  0
 26 27  1  0
 26 28  1  0
 26 36  1  0
 29 30  1  0
 29 31  1  0
 29 32  1  0
 32 33  1  0
 32 34  1  0
 32 35  1  0
 36 37  1  0
 36 38  1  0
 36 39  1  0
M  CHG  1   1   1
M  RAD  1   1   2
M  END
$$$$

     RDKit          3D

 39 38  0  0  0  0  0  0  0  0999 V2000
    0.4503   -0.1603   -3.6536 S   0  0  0  0  0  2  0  0  0  0  0  0
    1.7808    1.2879   -4.5499 Si  0  0  0  0  0  4  0  0  0  0  0  0
    2.3975    2.0341   -3.4505 H   0  0  0  0  0  0  0  0  0  0  0  0
    2.8272    0.6091   -5.3112 H   0  0  0  0  0  0  0  0  0  0  0  0
    0.2301   -1.8512   -4.9717 Si  0  0  0  0  0  4  0  0  0  0  0  0
    0.5650   -1.4144   -6.3252 H   0  0  0  0  0  0  0  0  0  0  0  0
    1.1793   -2.9241   -4.5981 H   0  0  0  0  0  0  0  0  0  0  0  0
    0.5975    2.6411   -5.8966 Si  0  0  0  0  0  4  0  0  0  0  0  0
    0.7246    4.0153   -5.3525 H   0  0  0  0  0  0  0  0  0  0  0  0
    1.1726    2.6628   -7.2539 H   0  0  0  0  0  0  0  0  0  0  0  0
   -1.8801   -2.5778   -4.9286 Si  0  0  0  0  0  4  0  0  0  0  0  0
   -2.7154   -1.7737   -4.0238 H   0  0  0  0  0  0  0  0  0  0  0  0
   -1.8739   -3.9522   -4.3780 H   0  0  0  0  0  0  0  0  0  0  0  0
   -2.7494   -2.6896   -6.9755 Si  0  0  0  0  0  4  0  0  0  0  0  0
   -2.2896   -3.9221   -7.6273 H   0  0  0  0  0  0  0  0  0  0  0  0
   -2.2560   -1.5635   -7.7549 H   0  0  0  0  0  0  0  0  0  0  0  0
   -1.5258    2.0115   -5.9013 Si  0  0  0  0  0  4  0  0  0  0  0  0
   -1.6543    0.7038   -5.2073 H   0  0  0  0  0  0  0  0  0  0  0  0
   -2.3102    2.9751   -5.0904 H   0  0  0  0  0  0  0  0  0  0  0  0
   -2.3800    1.8453   -7.9235 Si  0  0  0  0  0  4  0  0  0  0  0  0
   -3.1959    0.6358   -8.0552 H   0  0  0  0  0  0  0  0  0  0  0  0
   -3.2448    3.0125   -8.1727 H   0  0  0  0  0  0  0  0  0  0  0  0
   -4.9716   -2.6048   -6.9309 Si  0  0  0  0  0  4  0  0  0  0  0  0
   -5.4557   -2.4182   -8.2967 H   0  0  0  0  0  0  0  0  0  0  0  0
   -5.4648   -3.8751   -6.4024 H   0  0  0  0  0  0  0  0  0  0  0  0
   -0.8245    1.8101   -9.5149 Si  0  0  0  0  0  4  0  0  0  0  0  0
   -0.0385    3.0570   -9.5364 H   0  0  0  0  0  0  0  0  0  0  0  0
   -1.5369    1.7227  -10.8162 H   0  0  0  0  0  0  0  0  0  0  0  0
   -5.6100   -0.9041   -5.6285 Si  0  0  0  0  0  4  0  0  0  0  0  0
   -6.7081   -1.3947   -4.7721 H   0  0  0  0  0  0  0  0  0  0  0  0
   -4.4792   -0.4884   -4.8015 H   0  0  0  0  0  0  0  0  0  0  0  0
   -6.3240    0.8055   -6.8584 Si  0  0  0  0  0  4  0  0  0  0  0  0
   -5.6319    2.0315   -6.4340 H   0  0  0  0  0  0  0  0  0  0  0  0
   -6.1084    0.5495   -8.3002 H   0  0  0  0  0  0  0  0  0  0  0  0
   -7.7652    1.0209   -6.6315 H   0  0  0  0  0  0  0  0  0  0  0  0
    0.5263    0.0678   -9.3328 Si  0  0  0  0  0  4  0  0  0  0  0  0
    1.8019    0.4179   -8.6772 H   0  0  0  0  0  0  0  0  0  0  0  0
    0.8898   -0.4122  -10.6926 H   0  0  0  0  0  0  0  0  0  0  0  0
   -0.0771   -1.0566   -8.6274 H   0  0  0  0  0  0  0  0  0  0  0  0
  1  2  1  0
  1  5  1  0
  2  3  1  0
  2  4  1  0
  2  8  1  0
  5  6  1  0
  5  7  1  0
  5 11  1  0
  8  9  1  0
  8 10  1  0
  8 17  1  0
 11 12  1  0
 11 13  1  0
 11 14  1  0
 14 15  1  0
 14 16  1  0
 14 23  1  0
 17 18  1  0
 17 19  1  0
 17 20  1  0
 20 21  1  0
 20 22  1  0
 20 26  1  0
 23 24  1  0
 23 25  1  0
 23 29  1  0
 26 27  1  0
 26 28  1  0
 26 36  1  0
 29 30  1  0
 29 31  1  0
 29 32  1  0
 32 33  1  0
 32 34  1  0
 32 35  1  0
 36 37  1  0
 36 38  1  0
 36 39  1  0
M  CHG  1   1   1
M  RAD  1   1   2
M  END
$$$$

     RDKit          3D

 39 38  0  0  0  0  0  0  0  0999 V2000
    0.4503   -0.1603   -3.6536 S   0  0  0  0  0  2  0  0  0  0  0  0
    1.9822   -0.7916   -5.0299 Si  0  0  0  0  0  4  0  0  0  0  0  0
    3.2408   -0.8794   -4.2337 H   0  0  0  0  0  0  0  0  0  0  0  0
    2.2209    0.2045   -6.0696 H   0  0  0  0  0  0  0  0  0  0  0  0
   -0.7324    1.4257   -4.4937 Si  0  0  0  0  0  4  0  0  0  0  0  0
   -0.6077    2.6270   -3.6532 H   0  0  0  0  0  0  0  0  0  0  0  0
   -2.1369    1.0132   -4.4566 H   0  0  0  0  0  0  0  0  0  0  0  0
    1.5622   -2.8112   -5.8325 Si  0  0  0  0  0  4  0  0  0  0  0  0
    2.8113   -3.4802   -6.1824 H   0  0  0  0  0  0  0  0  0  0  0  0
    0.8808   -3.5899   -4.7662 H   0  0  0  0  0  0  0  0  0  0  0  0
   -0.0483    1.7781   -6.5786 Si  0  0  0  0  0  4  0  0  0  0  0  0
    0.4998    0.5293   -7.1153 H   0  0  0  0  0  0  0  0  0  0  0  0
    0.9252    2.8688   -6.5612 H   0  0  0  0  0  0  0  0  0  0  0  0
   -1.7523    2.3929   -7.8994 Si  0  0  0  0  0  4  0  0  0  0  0  0
   -1.1885    2.6673   -9.2299 H   0  0  0  0  0  0  0  0  0  0  0  0
   -2.3632    3.6441   -7.4231 H   0  0  0  0  0  0  0  0  0  0  0  0
    0.2201   -2.7704   -7.5966 Si  0  0  0  0  0  4  0  0  0  0  0  0
   -0.3264   -4.1470   -7.7702 H   0  0  0  0  0  0  0  0  0  0  0  0
   -0.9400   -1.9000   -7.3814 H   0  0  0  0  0  0  0  0  0  0  0  0
    1.3123   -2.2698   -9.4712 Si  0  0  0  0  0  4  0  0  0  0  0  0
    1.6434   -3.4716  -10.2446 H   0  0  0  0  0  0  0  0  0  0  0  0
    2.5891   -1.6260   -9.1070 H   0  0  0  0  0  0  0  0  0  0  0  0
   -3.2605    0.7377   -8.0014 Si  0  0  0  0  0  4  0  0  0  0  0  0
   -2.8328   -0.4197   -7.2191 H   0  0  0  0  0  0  0  0  0  0  0  0
   -3.4197    0.3516   -9.4156 H   0  0  0  0  0  0  0  0  0  0  0  0
    0.1481   -0.8870  -10.7646 Si  0  0  0  0  0  4  0  0  0  0  0  0
    1.0621   -0.3441  -11.7942 H   0  0  0  0  0  0  0  0  0  0  0  0
   -0.4047    0.2408  -10.0250 H   0  0  0  0  0  0  0  0  0  0  0  0
   -5.2118    1.4921   -7.1944 Si  0  0  0  0  0  4  0  0  0  0  0  0
   -5.6900    0.6242   -6.0974 H   0  0  0  0  0  0  0  0  0  0  0  0
   -6.2148    1.4635   -8.2779 H   0  0  0  0  0  0  0  0  0  0  0  0
   -4.9679    3.5783   -6.4358 Si  0  0  0  0  0  4  0  0  0  0  0  0
   -6.1067    3.9358   -5.5809 H   0  0  0  0  0  0  0  0  0  0  0  0
   -4.8826    4.5088   -7.5839 H   0  0  0  0  0  0  0  0  0  0  0  0
   -3.6871    3.6841   -5.7054 H   0  0  0  0  0  0  0  0  0  0  0  0
   -1.5084   -1.9280  -11.8193 Si  0  0  0  0  0  4  0  0  0  0  0  0
   -2.6442   -2.1905  -10.9170 H   0  0  0  0  0  0  0  0  0  0  0  0
   -2.0008   -1.0256  -12.8849 H   0  0  0  0  0  0  0  0  0  0  0  0
   -1.0508   -3.1564  -12.4754 H   0  0  0  0  0  0  0  0  0  0  0  0
  1  2  1  0
  1  5  1  0
  2  3  1  0
  2  4  1  0
  2  8  1  0
  5  6  1  0
  5  7  1  0
  5 11  1  0
  8  9  1  0
  8 10  1  0
  8 17  1  0
 11 12  1  0
 11 13  1  0
 11 14  1  0
 14 15  1  0
 14 16  1  0
 14 23  1  0
 17 18  1  0
 17 19  1  0
 17 20  1  0
 20 21  1  0
 20 22  1  0
 20 26  1  0
 23 24  1  0
 23 25  1  0
 23 29  1  0
 26 27  1  0
 26 28  1  0
 26 36  1  0
 29 30  1  0
 29 31  1  0
 29 32  1  0
 32 33  1  0
 32 34  1  0
 32 35  1  0
 36 37  1  0
 36 38  1  0
 36 39  1  0
M  CHG  1   1   1
M  RAD  1   1   2
M  END
$$$$

     RDKit          3D

 39 38  0  0  0  0  0  0  0  0999 V2000
    0.4503   -0.1603   -3.6536 S   0  0  0  0  0  2  0  0  0  0  0  0
    1.7784    0.9879   -4.9016 Si  0  0  0  0  0  4  0  0  0  0  0  0
    2.3444    2.0563   -4.0275 H   0  0  0  0  0  0  0  0  0  0  0  0
    1.0605    1.6699   -5.9738 H   0  0  0  0  0  0  0  0  0  0  0  0
   -1.4265   -0.5069   -4.6422 Si  0  0  0  0  0  4  0  0  0  0  0  0
   -2.5126    0.1009   -3.8572 H   0  0  0  0  0  0  0  0  0  0  0  0
   -1.6655   -1.9512   -4.6691 H   0  0  0  0  0  0  0  0  0  0  0  0
    3.4697   -0.2430   -5.6253 Si  0  0  0  0  0  4  0  0  0  0  0  0
    4.6359    0.6010   -5.8653 H   0  0  0  0  0  0  0  0  0  0  0  0
    3.7989   -1.2295   -4.5642 H   0  0  0  0  0  0  0  0  0  0  0  0
   -1.2985    0.3296   -6.6972 Si  0  0  0  0  0  4  0  0  0  0  0  0
    0.0993    0.2966   -7.1364 H   0  0  0  0  0  0  0  0  0  0  0  0
   -1.8594    1.6797   -6.6760 H   0  0  0  0  0  0  0  0  0  0  0  0
   -2.4933   -0.8931   -8.1475 Si  0  0  0  0  0  4  0  0  0  0  0  0
   -2.4011   -0.2233   -9.4537 H   0  0  0  0  0  0  0  0  0  0  0  0
   -3.9161   -0.9136   -7.7725 H   0  0  0  0  0  0  0  0  0  0  0  0
    2.9790   -1.3755   -7.4669 Si  0  0  0  0  0  4  0  0  0  0  0  0
    3.9927   -2.4608   -7.6037 H   0  0  0  0  0  0  0  0  0  0  0  0
    1.6797   -2.0474   -7.3661 H   0  0  0  0  0  0  0  0  0  0  0  0
    3.1352   -0.1142   -9.2951 Si  0  0  0  0  0  4  0  0  0  0  0  0
    4.4139   -0.3143   -9.9857 H   0  0  0  0  0  0  0  0  0  0  0  0
    3.0823    1.3030   -8.8875 H   0  0  0  0  0  0  0  0  0  0  0  0
   -1.6501   -2.9672   -8.2568 Si  0  0  0  0  0  4  0  0  0  0  0  0
   -0.4807   -3.1114   -7.3929 H   0  0  0  0  0  0  0  0  0  0  0  0
   -1.2706   -3.2326   -9.6568 H   0  0  0  0  0  0  0  0  0  0  0  0
    1.4814   -0.5179  -10.7243 Si  0  0  0  0  0  4  0  0  0  0  0  0
    1.4621    0.5741  -11.7230 H   0  0  0  0  0  0  0  0  0  0  0  0
    0.1758   -0.5484  -10.0771 H   0  0  0  0  0  0  0  0  0  0  0  0
   -3.2294   -4.4207   -7.6078 Si  0  0  0  0  0  4  0  0  0  0  0  0
   -2.7343   -5.2642   -6.4994 H   0  0  0  0  0  0  0  0  0  0  0  0
   -3.5597   -5.3004   -8.7470 H   0  0  0  0  0  0  0  0  0  0  0  0
   -5.0535   -3.3178   -6.9418 Si  0  0  0  0  0  4  0  0  0  0  0  0
   -5.9282   -4.2145   -6.1762 H   0  0  0  0  0  0  0  0  0  0  0  0
   -5.7710   -2.7989   -8.1282 H   0  0  0  0  0  0  0  0  0  0  0  0
   -4.6471   -2.1431   -6.1419 H   0  0  0  0  0  0  0  0  0  0  0  0
    1.7766   -2.4272  -11.8232 Si  0  0  0  0  0  4  0  0  0  0  0  0
    1.4570   -3.5926  -10.9788 H   0  0  0  0  0  0  0  0  0  0  0  0
    0.8287   -2.4429  -12.9605 H   0  0  0  0  0  0  0  0  0  0  0  0
    3.1255   -2.5289  -12.3879 H   0  0  0  0  0  0  0  0  0  0  0  0
  1  2  1  0
  1  5  1  0
  2  3  1  0
  2  4  1  0
  2  8  1  0
  5  6  1  0
  5  7  1  0
  5 11  1  0
  8  9  1  0
  8 10  1  0
  8 17  1  0
 11 12  1  0
 11 13  1  0
 11 14  1  0
 14 15  1  0
 14 16  1  0
 14 23  1  0
 17 18  1  0
 17 19  1  0
 17 20  1  0
 20 21  1  0
 20 22  1  0
 20 26  1  0
 23 24  1  0
 23 25  1  0
 23 29  1  0
 26 27  1  0
 26 28  1  0
 26 36  1  0
 29 30  1  0
 29 31  1  0
 29 32  1  0
 32 33  1  0
 32 34  1  0
 32 35  1  0
 36 37  1  0
 36 38  1  0
 36 39  1  0
M  CHG  1   1   1
M  RAD  1   1   2
M  END
$$$$

     RDKit          3D

 39 38  0  0  0  0  0  0  0  0999 V2000
    0.4503   -0.1603   -3.6536 S   0  0  0  0  0  2  0  0  0  0  0  0
   -1.1670   -1.0808   -4.7527 Si  0  0  0  0  0  4  0  0  0  0  0  0
   -1.9930   -1.7926   -3.7746 H   0  0  0  0  0  0  0  0  0  0  0  0
   -1.9790   -0.0577   -5.4080 H   0  0  0  0  0  0  0  0  0  0  0  0
    1.1390    1.5870   -4.7108 Si  0  0  0  0  0  4  0  0  0  0  0  0
    0.7566    1.4451   -6.1138 H   0  0  0  0  0  0  0  0  0  0  0  0
    0.4770    2.8026   -4.1856 H   0  0  0  0  0  0  0  0  0  0  0  0
   -0.3121   -2.4871   -6.2813 Si  0  0  0  0  0  4  0  0  0  0  0  0
   -0.8017   -3.8461   -5.9437 H   0  0  0  0  0  0  0  0  0  0  0  0
   -0.8221   -2.1703   -7.6278 H   0  0  0  0  0  0  0  0  0  0  0  0
    3.3609    1.7388   -4.5602 Si  0  0  0  0  0  4  0  0  0  0  0  0
    3.9318    0.6295   -3.7816 H   0  0  0  0  0  0  0  0  0  0  0  0
    3.6800    2.9779   -3.8150 H   0  0  0  0  0  0  0  0  0  0  0  0
    4.3075    1.9127   -6.5681 Si  0  0  0  0  0  4  0  0  0  0  0  0
    4.1981    3.3008   -7.0335 H   0  0  0  0  0  0  0  0  0  0  0  0
    3.5766    1.0708   -7.5038 H   0  0  0  0  0  0  0  0  0  0  0  0
    1.8998   -2.4247   -6.1922 Si  0  0  0  0  0  4  0  0  0  0  0  0
    2.3270   -1.3040   -5.3148 H   0  0  0  0  0  0  0  0  0  0  0  0
    2.3850   -3.6606   -5.5298 H   0  0  0  0  0  0  0  0  0  0  0  0
    2.8447   -2.1984   -8.1677 Si  0  0  0  0  0  4  0  0  0  0  0  0
    3.9432   -1.2304   -8.1208 H   0  0  0  0  0  0  0  0  0  0  0  0
    3.3966   -3.5003   -8.5837 H   0  0  0  0  0  0  0  0  0  0  0  0
    6.4335    1.2595   -6.5343 Si  0  0  0  0  0  4  0  0  0  0  0  0
    6.9066    1.1500   -7.9122 H   0  0  0  0  0  0  0  0  0  0  0  0
    7.2102    2.2748   -5.8256 H   0  0  0  0  0  0  0  0  0  0  0  0
    1.4098   -1.5446   -9.7384 Si  0  0  0  0  0  4  0  0  0  0  0  0
    0.3366   -2.5344   -9.9423 H   0  0  0  0  0  0  0  0  0  0  0  0
    2.1703   -1.4591  -11.0124 H   0  0  0  0  0  0  0  0  0  0  0  0
    6.5732   -0.7136   -5.4932 Si  0  0  0  0  0  4  0  0  0  0  0  0
    7.7260   -0.6444   -4.5734 H   0  0  0  0  0  0  0  0  0  0  0  0
    5.3435   -0.9398   -4.7368 H   0  0  0  0  0  0  0  0  0  0  0  0
    6.8800   -2.3578   -6.9587 Si  0  0  0  0  0  4  0  0  0  0  0  0
    5.8859   -3.4143   -6.7183 H   0  0  0  0  0  0  0  0  0  0  0  0
    6.7907   -1.8550   -8.3479 H   0  0  0  0  0  0  0  0  0  0  0  0
    8.2108   -2.9628   -6.7643 H   0  0  0  0  0  0  0  0  0  0  0  0
    0.5353    0.4407   -9.3054 Si  0  0  0  0  0  4  0  0  0  0  0  0
   -0.8114    0.3382   -8.7091 H   0  0  0  0  0  0  0  0  0  0  0  0
    0.3563    1.1839  -10.5810 H   0  0  0  0  0  0  0  0  0  0  0  0
    1.3750    1.2634   -8.4430 H   0  0  0  0  0  0  0  0  0  0  0  0
  1  2  1  0
  1  5  1  0
  2  3  1  0
  2  4  1  0
  2  8  1  0
  5  6  1  0
  5  7  1  0
  5 11  1  0
  8  9  1  0
  8 10  1  0
  8 17  1  0
 11 12  1  0
 11 13  1  0
 11 14  1  0
 14 15  1  0
 14 16  1  0
 14 23  1  0
 17 18  1  0
 17 19  1  0
 17 20  1  0
 20 21  1  0
 20 22  1  0
 20 26  1  0
 23 24  1  0
 23 25  1  0
 23 29  1  0
 26 27  1  0
 26 28  1  0
 26 36  1  0
 29 30  1  0
 29 31  1  0
 29 32  1  0
 32 33  1  0
 32 34  1  0
 32 35  1  0
 36 37  1  0
 36 38  1  0
 36 39  1  0
M  CHG  1   1   1
M  RAD  1   1   2
M  END
$$$$

     RDKit          3D

 39 38  0  0  0  0  0  0  0  0999 V2000
    0.4503   -0.1603   -3.6536 S   0  0  0  0  0  2  0  0  0  0  0  0
    0.3612    1.6030   -4.8181 Si  0  0  0  0  0  4  0  0  0  0  0  0
   -0.2856    1.3737   -6.1086 H   0  0  0  0  0  0  0  0  0  0  0  0
   -0.4941    2.5884   -4.0939 H   0  0  0  0  0  0  0  0  0  0  0  0
    1.2184   -1.8377   -4.6675 Si  0  0  0  0  0  4  0  0  0  0  0  0
    2.6831   -1.8948   -4.5426 H   0  0  0  0  0  0  0  0  0  0  0  0
    0.6659   -3.0670   -4.0309 H   0  0  0  0  0  0  0  0  0  0  0  0
    2.3725    2.5448   -5.0338 Si  0  0  0  0  0  4  0  0  0  0  0  0
    3.4148    1.5520   -4.7007 H   0  0  0  0  0  0  0  0  0  0  0  0
    2.5542    3.6637   -4.0858 H   0  0  0  0  0  0  0  0  0  0  0  0
    0.6709   -1.9059   -6.8157 Si  0  0  0  0  0  4  0  0  0  0  0  0
    0.9155   -3.2987   -7.2901 H   0  0  0  0  0  0  0  0  0  0  0  0
    1.5450   -1.0441   -7.6046 H   0  0  0  0  0  0  0  0  0  0  0  0
   -1.4820   -1.4756   -7.1111 Si  0  0  0  0  0  4  0  0  0  0  0  0
   -2.2305   -2.7303   -6.9411 H   0  0  0  0  0  0  0  0  0  0  0  0
   -1.9210   -0.5380   -6.0696 H   0  0  0  0  0  0  0  0  0  0  0  0
    2.7017    3.3210   -7.0906 Si  0  0  0  0  0  4  0  0  0  0  0  0
    4.1591    3.2896   -7.3484 H   0  0  0  0  0  0  0  0  0  0  0  0
    2.2412    4.7156   -7.2315 H   0  0  0  0  0  0  0  0  0  0  0  0
    1.6114    2.1060   -8.6095 Si  0  0  0  0  0  4  0  0  0  0  0  0
    2.4526    0.9550   -8.9993 H   0  0  0  0  0  0  0  0  0  0  0  0
    0.3820    1.5487   -8.0283 H   0  0  0  0  0  0  0  0  0  0  0  0
   -1.9103   -0.5913   -9.0991 Si  0  0  0  0  0  4  0  0  0  0  0  0
   -0.7263   -0.0289   -9.7412 H   0  0  0  0  0  0  0  0  0  0  0  0
   -2.4062   -1.6814   -9.9760 H   0  0  0  0  0  0  0  0  0  0  0  0
    1.1530    3.3094  -10.4376 Si  0  0  0  0  0  4  0  0  0  0  0  0
   -0.2906    3.5782  -10.5534 H   0  0  0  0  0  0  0  0  0  0  0  0
    1.9000    4.5645  -10.4188 H   0  0  0  0  0  0  0  0  0  0  0  0
   -3.5592    0.8951   -8.9098 Si  0  0  0  0  0  4  0  0  0  0  0  0
   -4.2731    0.9574  -10.2030 H   0  0  0  0  0  0  0  0  0  0  0  0
   -4.5015    0.4073   -7.9023 H   0  0  0  0  0  0  0  0  0  0  0  0
   -2.7765    2.9271   -8.4098 Si  0  0  0  0  0  4  0  0  0  0  0  0
   -2.5305    3.6930   -9.6489 H   0  0  0  0  0  0  0  0  0  0  0  0
   -1.5858    2.8545   -7.5600 H   0  0  0  0  0  0  0  0  0  0  0  0
   -3.8421    3.6393   -7.6706 H   0  0  0  0  0  0  0  0  0  0  0  0
    1.7621    2.2004  -12.2903 Si  0  0  0  0  0  4  0  0  0  0  0  0
    3.2271    2.2664  -12.4675 H   0  0  0  0  0  0  0  0  0  0  0  0
    1.1647    2.8697  -13.4516 H   0  0  0  0  0  0  0  0  0  0  0  0
    1.3284    0.7947  -12.1835 H   0  0  0  0  0  0  0  0  0  0  0  0
  1  2  1  0
  1  5  1  0
  2  3  1  0
  2  4  1  0
  2  8  1  0
  5  6  1  0
  5  7  1  0
  5 11  1  0
  8  9  1  0
  8 10  1  0
  8 17  1  0
 11 12  1  0
 11 13  1  0
 11 14  1  0
 14 15  1  0
 14 16  1  0
 14 23  1  0
 17 18  1  0
 17 19  1  0
 17 20  1  0
 20 21  1  0
 20 22  1  0
 20 26  1  0
 23 24  1  0
 23 25  1  0
 23 29  1  0
 26 27  1  0
 26 28  1  0
 26 36  1  0
 29 30  1  0
 29 31  1  0
 29 32  1  0
 32 33  1  0
 32 34  1  0
 32 35  1  0
 36 37  1  0
 36 38  1  0
 36 39  1  0
M  CHG  1   1   1
M  RAD  1   1   2
M  END
$$$$

     RDKit          3D

 39 38  0  0  0  0  0  0  0  0999 V2000
    0.4503   -0.1603   -3.6536 S   0  0  0  0  0  2  0  0  0  0  0  0
   -0.8900   -1.0523   -5.0251 Si  0  0  0  0  0  4  0  0  0  0  0  0
   -0.2495   -1.3398   -6.3071 H   0  0  0  0  0  0  0  0  0  0  0  0
   -1.3095   -2.3706   -4.4653 H   0  0  0  0  0  0  0  0  0  0  0  0
    1.5190    1.4830   -4.4213 Si  0  0  0  0  0  4  0  0  0  0  0  0
    0.7661    2.7312   -4.2228 H   0  0  0  0  0  0  0  0  0  0  0  0
    2.7988    1.6066   -3.6673 H   0  0  0  0  0  0  0  0  0  0  0  0
   -2.7491    0.1592   -5.2596 Si  0  0  0  0  0  4  0  0  0  0  0  0
   -2.5057    1.5287   -4.7614 H   0  0  0  0  0  0  0  0  0  0  0  0
   -3.8578   -0.3820   -4.4460 H   0  0  0  0  0  0  0  0  0  0  0  0
    2.0367    1.2824   -6.5686 Si  0  0  0  0  0  4  0  0  0  0  0  0
    3.1082    2.2782   -6.8597 H   0  0  0  0  0  0  0  0  0  0  0  0
    0.9029    1.6403   -7.4143 H   0  0  0  0  0  0  0  0  0  0  0  0
    2.8616   -0.7250   -7.0128 Si  0  0  0  0  0  4  0  0  0  0  0  0
    4.3043   -0.7041   -6.7276 H   0  0  0  0  0  0  0  0  0  0  0  0
    2.2330   -1.7009   -6.1134 H   0  0  0  0  0  0  0  0  0  0  0  0
   -3.4196    0.2364   -7.3775 Si  0  0  0  0  0  4  0  0  0  0  0  0
   -4.1607    1.5045   -7.5620 H   0  0  0  0  0  0  0  0  0  0  0  0
   -4.3289   -0.8779   -7.7067 H   0  0  0  0  0  0  0  0  0  0  0  0
   -1.6959    0.1245   -8.7876 Si  0  0  0  0  0  4  0  0  0  0  0  0
   -1.1557    1.4842   -8.9965 H   0  0  0  0  0  0  0  0  0  0  0  0
   -0.6095   -0.6725   -8.2009 H   0  0  0  0  0  0  0  0  0  0  0  0
    2.5044   -1.3489   -9.1106 Si  0  0  0  0  0  4  0  0  0  0  0  0
    1.4427   -0.5865   -9.7604 H   0  0  0  0  0  0  0  0  0  0  0  0
    3.7531   -1.0945   -9.8717 H   0  0  0  0  0  0  0  0  0  0  0  0
   -2.3166   -0.7112  -10.7667 Si  0  0  0  0  0  4  0  0  0  0  0  0
   -1.7533   -2.0552  -10.9807 H   0  0  0  0  0  0  0  0  0  0  0  0
   -3.7734   -0.7531  -10.8649 H   0  0  0  0  0  0  0  0  0  0  0  0
    2.1347   -3.5450   -9.1784 Si  0  0  0  0  0  4  0  0  0  0  0  0
    2.5673   -4.0437  -10.5013 H   0  0  0  0  0  0  0  0  0  0  0  0
    2.9752   -4.1820   -8.1641 H   0  0  0  0  0  0  0  0  0  0  0  0
   -0.0294   -4.0204   -8.8914 Si  0  0  0  0  0  4  0  0  0  0  0  0
   -0.7091   -4.0924  -10.2011 H   0  0  0  0  0  0  0  0  0  0  0  0
   -0.6769   -3.0694   -7.9849 H   0  0  0  0  0  0  0  0  0  0  0  0
   -0.1075   -5.3715   -8.2936 H   0  0  0  0  0  0  0  0  0  0  0  0
   -1.5740    0.5832  -12.4420 Si  0  0  0  0  0  4  0  0  0  0  0  0
   -2.4070    1.7975  -12.5580 H   0  0  0  0  0  0  0  0  0  0  0  0
   -1.7231   -0.1542  -13.7018 H   0  0  0  0  0  0  0  0  0  0  0  0
   -0.1698    0.9556  -12.1866 H   0  0  0  0  0  0  0  0  0  0  0  0
  1  2  1  0
  1  5  1  0
  2  3  1  0
  2  4  1  0
  2  8  1  0
  5  6  1  0
  5  7  1  0
  5 11  1  0
  8  9  1  0
  8 10  1  0
  8 17  1  0
 11 12  1  0
 11 13  1  0
 11 14  1  0
 14 15  1  0
 14 16  1  0
 14 23  1  0
 17 18  1  0
 17 19  1  0
 17 20  1  0
 20 21  1  0
 20 22  1  0
 20 26  1  0
 23 24  1  0
 23 25  1  0
 23 29  1  0
 26 27  1  0
 26 28  1  0
 26 36  1  0
 29 30  1  0
 29 31  1  0
 29 32  1  0
 32 33  1  0
 32 34  1  0
 32 35  1  0
 36 37  1  0
 36 38  1  0
 36 39  1  0
M  CHG  1   1   1
M  RAD  1   1   2
M  END
$$$$

     RDKit          3D

 39 38  0  0  0  0  0  0  0  0999 V2000
    0.4503   -0.1603   -3.6536 S   0  0  0  0  0  2  0  0  0  0  0  0
   -0.4998   -1.4342   -5.0492 Si  0  0  0  0  0  4  0  0  0  0  0  0
    0.2297   -1.5001   -6.3140 H   0  0  0  0  0  0  0  0  0  0  0  0
   -0.4877   -2.8177   -4.4899 H   0  0  0  0  0  0  0  0  0  0  0  0
    0.9537    1.7395   -4.4081 Si  0  0  0  0  0  4  0  0  0  0  0  0
   -0.1642    2.6801   -4.2358 H   0  0  0  0  0  0  0  0  0  0  0  0
    2.1078    2.2666   -3.6258 H   0  0  0  0  0  0  0  0  0  0  0  0
   -2.6431   -0.8828   -5.3348 Si  0  0  0  0  0  4  0  0  0  0  0  0
   -2.8637    0.4920   -4.8409 H   0  0  0  0  0  0  0  0  0  0  0  0
   -3.5388   -1.7516   -4.5432 H   0  0  0  0  0  0  0  0  0  0  0  0
    1.5598    1.7170   -6.5415 Si  0  0  0  0  0  4  0  0  0  0  0  0
    2.2621    3.0041   -6.8150 H   0  0  0  0  0  0  0  0  0  0  0  0
    0.3918    1.6929   -7.4155 H   0  0  0  0  0  0  0  0  0  0  0  0
    2.9953    0.0806   -6.9525 Si  0  0  0  0  0  4  0  0  0  0  0  0
    4.3479    0.5630   -6.6344 H   0  0  0  0  0  0  0  0  0  0  0  0
    2.6914   -1.0461   -6.0609 H   0  0  0  0  0  0  0  0  0  0  0  0
   -3.2518   -1.0233   -7.4681 Si  0  0  0  0  0  4  0  0  0  0  0  0
   -4.3558   -0.0598   -7.6785 H   0  0  0  0  0  0  0  0  0  0  0  0
   -3.7475   -2.3702   -7.8102 H   0  0  0  0  0  0  0  0  0  0  0  0
   -1.5499   -0.5755   -8.8374 Si  0  0  0  0  0  4  0  0  0  0  0  0
   -1.4694    0.8858   -9.0434 H   0  0  0  0  0  0  0  0  0  0  0  0
   -0.2797   -0.9823   -8.2203 H   0  0  0  0  0  0  0  0  0  0  0  0
    2.9075   -0.6235   -9.0535 Si  0  0  0  0  0  4  0  0  0  0  0  0
    1.6734   -0.2415   -9.7329 H   0  0  0  0  0  0  0  0  0  0  0  0
    4.0266    0.0185   -9.7874 H   0  0  0  0  0  0  0  0  0  0  0  0
   -1.8221   -1.5647  -10.8243 Si  0  0  0  0  0  4  0  0  0  0  0  0
   -0.8526   -2.6569  -11.0158 H   0  0  0  0  0  0  0  0  0  0  0  0
   -3.1857   -2.0717  -10.9556 H   0  0  0  0  0  0  0  0  0  0  0  0
    3.2634   -2.8221   -9.1142 Si  0  0  0  0  0  4  0  0  0  0  0  0
    3.8647   -3.1548  -10.4233 H   0  0  0  0  0  0  0  0  0  0  0  0
    4.2391   -3.1566   -8.0764 H   0  0  0  0  0  0  0  0  0  0  0  0
    1.3598   -3.9667   -8.8737 Si  0  0  0  0  0  4  0  0  0  0  0  0
    0.7708   -4.2520  -10.1981 H   0  0  0  0  0  0  0  0  0  0  0  0
    0.4199   -3.2743   -7.9890 H   0  0  0  0  0  0  0  0  0  0  0  0
    1.7048   -5.2719   -8.2682 H   0  0  0  0  0  0  0  0  0  0  0  0
   -1.4938   -0.0994  -12.4912 Si  0  0  0  0  0  4  0  0  0  0  0  0
   -2.6692    0.7836  -12.6348 H   0  0  0  0  0  0  0  0  0  0  0  0
   -1.3682   -0.8449  -13.7489 H   0  0  0  0  0  0  0  0  0  0  0  0
   -0.2897    0.7035  -12.2062 H   0  0  0  0  0  0  0  0  0  0  0  0
  1  2  1  0
  1  5  1  0
  2  3  1  0
  2  4  1  0
  2  8  1  0
  5  6  1  0
  5  7  1  0
  5 11  1  0
  8  9  1  0
  8 10  1  0
  8 17  1  0
 11 12  1  0
 11 13  1  0
 11 14  1  0
 14 15  1  0
 14 16  1  0
 14 23  1  0
 17 18  1  0
 17 19  1  0
 17 20  1  0
 20 21  1  0
 20 22  1  0
 20 26  1  0
 23 24  1  0
 23 25  1  0
 23 29  1  0
 26 27  1  0
 26 28  1  0
 26 36  1  0
 29 30  1  0
 29 31  1  0
 29 32  1  0
 32 33  1  0
 32 34  1  0
 32 35  1  0
 36 37  1  0
 36 38  1  0
 36 39  1  0
M  CHG  1   1   1
M  RAD  1   1   2
M  END
$$$$
