
     RDKit          3D

 39 38  0  0  0  0  0  0  0  0999 V2000
   -0.0838   -0.2680   -2.4606 S   0  0  0  0  0  2  0  0  0  0  0  0
    1.8899    0.2022   -3.1186 Si  0  0  0  0  0  4  0  0  0  0  0  0
    1.8407    1.5392   -3.7532 H   0  0  0  0  0  0  0  0  0  0  0  0
    2.7822    0.3380   -1.9508 H   0  0  0  0  0  0  0  0  0  0  0  0
   -1.4908   -0.1396   -4.0453 Si  0  0  0  0  0  4  0  0  0  0  0  0
   -1.4294   -1.3783   -4.8481 H   0  0  0  0  0  0  0  0  0  0  0  0
   -2.8679   -0.0210   -3.5340 H   0  0  0  0  0  0  0  0  0  0  0  0
    2.6677   -1.3365   -4.5523 Si  0  0  0  0  0  4  0  0  0  0  0  0
    1.6850   -2.3888   -4.8007 H   0  0  0  0  0  0  0  0  0  0  0  0
    3.8443   -1.9963   -3.9281 H   0  0  0  0  0  0  0  0  0  0  0  0
   -1.0810    1.5802   -5.4060 Si  0  0  0  0  0  4  0  0  0  0  0  0
    0.3643    1.7548   -5.6116 H   0  0  0  0  0  0  0  0  0  0  0  0
   -1.6293    2.8310   -4.8388 H   0  0  0  0  0  0  0  0  0  0  0  0
   -2.0507    1.1445   -7.3792 Si  0  0  0  0  0  4  0  0  0  0  0  0
   -3.3829    1.7712   -7.3964 H   0  0  0  0  0  0  0  0  0  0  0  0
   -2.1958   -0.3159   -7.5158 H   0  0  0  0  0  0  0  0  0  0  0  0
    3.3356   -0.3044   -6.3857 Si  0  0  0  0  0  4  0  0  0  0  0  0
    2.2959    0.6932   -6.7539 H   0  0  0  0  0  0  0  0  0  0  0  0
    4.5637    0.4707   -6.0504 H   0  0  0  0  0  0  0  0  0  0  0  0
    3.8029   -1.6611   -8.0491 Si  0  0  0  0  0  4  0  0  0  0  0  0
    3.8856   -0.8555   -9.2997 H   0  0  0  0  0  0  0  0  0  0  0  0
    5.1407   -2.2565   -7.8547 H   0  0  0  0  0  0  0  0  0  0  0  0
   -0.8137    1.8890   -9.0720 Si  0  0  0  0  0  4  0  0  0  0  0  0
    0.0592    2.9821   -8.6058 H   0  0  0  0  0  0  0  0  0  0  0  0
    0.0157    0.7869   -9.5849 H   0  0  0  0  0  0  0  0  0  0  0  0
    2.3199   -3.2547   -8.3535 Si  0  0  0  0  0  4  0  0  0  0  0  0
    2.5823   -4.4430   -7.5515 H   0  0  0  0  0  0  0  0  0  0  0  0
    2.3809   -3.6825   -9.7802 H   0  0  0  0  0  0  0  0  0  0  0  0
   -2.1114    2.5888  -10.7532 Si  0  0  0  0  0  4  0  0  0  0  0  0
   -2.1272    1.6084  -11.8378 H   0  0  0  0  0  0  0  0  0  0  0  0
   -1.6390    3.8634  -11.3031 H   0  0  0  0  0  0  0  0  0  0  0  0
   -4.1961    2.8826   -9.9988 Si  0  0  0  0  0  4  0  0  0  0  0  0
   -4.6782    1.6374   -9.3605 H   0  0  0  0  0  0  0  0  0  0  0  0
   -5.0788    3.2538  -11.1152 H   0  0  0  0  0  0  0  0  0  0  0  0
   -4.2078    3.9269   -8.9545 H   0  0  0  0  0  0  0  0  0  0  0  0
    0.2353   -2.5877   -7.9549 Si  0  0  0  0  0  4  0  0  0  0  0  0
   -0.1706   -1.4827   -8.8254 H   0  0  0  0  0  0  0  0  0  0  0  0
   -0.6589   -3.7298   -8.2811 H   0  0  0  0  0  0  0  0  0  0  0  0
    0.0286   -2.2888   -6.5348 H   0  0  0  0  0  0  0  0  0  0  0  0
  1  2  1  0
  1  5  1  0
  2  3  1  0
  2  4  1  0
  2  8  1  0
  5  6  1  0
  5  7  1  0
  5 11  1  0
  8  9  1  0
  8 10  1  0
  8 17  1  0
 11 12  1  0
 11 13  1  0
 11 14  1  0
 14 15  1  0
 14 16  1  0
 14 23  1  0
 17 18  1  0
 17 19  1  0
 17 20  1  0
 20 21  1  0
 20 22  1  0
 20 26  1  0
 23 24  1  0
 23 25  1  0
 23 29  1  0
 26 27  1  0
 26 28  1  0
 26 36  1  0
 29 30  1  0
 29 31  1  0
 29 32  1  0
 32 33  1  0
 32 34  1  0
 32 35  1  0
 36 37  1  0
 36 38  1  0
 36 39  1  0
M  CHG  1   1   1
M  RAD  1   1   2
M  END
$$$$

     RDKit          3D

 39 38  0  0  0  0  0  0  0  0999 V2000
   -0.0838   -0.2680   -2.4606 S   0  0  0  0  0  2  0  0  0  0  0  0
    1.7612    0.5556   -3.1443 Si  0  0  0  0  0  4  0  0  0  0  0  0
    1.4586    1.8583   -3.7798 H   0  0  0  0  0  0  0  0  0  0  0  0
    2.6275    0.8575   -1.9881 H   0  0  0  0  0  0  0  0  0  0  0  0
   -1.5098   -0.4067   -4.0274 Si  0  0  0  0  0  4  0  0  0  0  0  0
   -1.2311   -1.6155   -4.8294 H   0  0  0  0  0  0  0  0  0  0  0  0
   -2.8788   -0.5420   -3.4987 H   0  0  0  0  0  0  0  0  0  0  0  0
    2.7915   -0.8185   -4.5860 Si  0  0  0  0  0  4  0  0  0  0  0  0
    2.0165   -2.0348   -4.8207 H   0  0  0  0  0  0  0  0  0  0  0  0
    4.0771   -1.2480   -3.9761 H   0  0  0  0  0  0  0  0  0  0  0  0
   -1.4408    1.3544   -5.3952 Si  0  0  0  0  0  4  0  0  0  0  0  0
   -0.0551    1.7917   -5.6195 H   0  0  0  0  0  0  0  0  0  0  0  0
   -2.2032    2.4848   -4.8225 H   0  0  0  0  0  0  0  0  0  0  0  0
   -2.3379    0.7406   -7.3554 Si  0  0  0  0  0  4  0  0  0  0  0  0
   -3.7629    1.1111   -7.3563 H   0  0  0  0  0  0  0  0  0  0  0  0
   -2.2130   -0.7219   -7.4884 H   0  0  0  0  0  0  0  0  0  0  0  0
    3.2350    0.3126   -6.4290 Si  0  0  0  0  0  4  0  0  0  0  0  0
    2.0248    1.1002   -6.7850 H   0  0  0  0  0  0  0  0  0  0  0  0
    4.3033    1.3018   -6.1103 H   0  0  0  0  0  0  0  0  0  0  0  0
    3.9238   -0.9406   -8.0966 Si  0  0  0  0  0  4  0  0  0  0  0  0
    3.8412   -0.1379   -9.3492 H   0  0  0  0  0  0  0  0  0  0  0  0
    5.3507   -1.2786   -7.9186 H   0  0  0  0  0  0  0  0  0  0  0  0
   -1.2802    1.6945   -9.0647 Si  0  0  0  0  0  4  0  0  0  0  0  0
   -0.6180    2.9312   -8.6109 H   0  0  0  0  0  0  0  0  0  0  0  0
   -0.2684    0.7622   -9.5868 H   0  0  0  0  0  0  0  0  0  0  0  0
    2.7563   -2.7812   -8.3803 Si  0  0  0  0  0  4  0  0  0  0  0  0
    3.2431   -3.8980   -7.5803 H   0  0  0  0  0  0  0  0  0  0  0  0
    2.8775   -3.1955   -9.8071 H   0  0  0  0  0  0  0  0  0  0  0  0
   -2.7054    2.1372  -10.7299 Si  0  0  0  0  0  4  0  0  0  0  0  0
   -2.5536    1.1669  -11.8131 H   0  0  0  0  0  0  0  0  0  0  0  0
   -2.4828    3.4751  -11.2873 H   0  0  0  0  0  0  0  0  0  0  0  0
   -4.7990    2.0445   -9.9494 Si  0  0  0  0  0  4  0  0  0  0  0  0
   -5.0354    0.7340   -9.3035 H   0  0  0  0  0  0  0  0  0  0  0  0
   -5.7487    2.2428  -11.0548 H   0  0  0  0  0  0  0  0  0  0  0  0
   -4.9901    3.0724   -8.9061 H   0  0  0  0  0  0  0  0  0  0  0  0
    0.5896   -2.5084   -7.9558 Si  0  0  0  0  0  4  0  0  0  0  0  0
   -0.0238   -1.5002   -8.8223 H   0  0  0  0  0  0  0  0  0  0  0  0
   -0.0828   -3.7969   -8.2692 H   0  0  0  0  0  0  0  0  0  0  0  0
    0.3488   -2.2477   -6.5335 H   0  0  0  0  0  0  0  0  0  0  0  0
  1  2  1  0
  1  5  1  0
  2  3  1  0
  2  4  1  0
  2  8  1  0
  5  6  1  0
  5  7  1  0
  5 11  1  0
  8  9  1  0
  8 10  1  0
  8 17  1  0
 11 12  1  0
 11 13  1  0
 11 14  1  0
 14 15  1  0
 14 16  1  0
 14 23  1  0
 17 18  1  0
 17 19  1  0
 17 20  1  0
 20 21  1  0
 20 22  1  0
 20 26  1  0
 23 24  1  0
 23 25  1  0
 23 29  1  0
 26 27  1  0
 26 28  1  0
 26 36  1  0
 29 30  1  0
 29 31  1  0
 29 32  1  0
 32 33  1  0
 32 34  1  0
 32 35  1  0
 36 37  1  0
 36 38  1  0
 36 39  1  0
M  CHG  1   1   1
M  RAD  1   1   2
M  END
$$$$

     RDKit          3D

 39 38  0  0  0  0  0  0  0  0999 V2000
   -0.0838   -0.2680   -2.4606 S   0  0  0  0  0  2  0  0  0  0  0  0
    1.3592    1.1241   -3.1881 Si  0  0  0  0  0  4  0  0  0  0  0  0
    0.6206    2.2431   -3.8166 H   0  0  0  0  0  0  0  0  0  0  0  0
    2.0983    1.7102   -2.0529 H   0  0  0  0  0  0  0  0  0  0  0  0
   -1.4138   -0.8927   -3.9931 Si  0  0  0  0  0  4  0  0  0  0  0  0
   -0.7613   -1.9432   -4.8012 H   0  0  0  0  0  0  0  0  0  0  0  0
   -2.6446   -1.4777   -3.4319 H   0  0  0  0  0  0  0  0  0  0  0  0
    2.7605    0.1664   -4.6535 Si  0  0  0  0  0  4  0  0  0  0  0  0
    2.4366   -1.2419   -4.8694 H   0  0  0  0  0  0  0  0  0  0  0  0
    4.1289    0.2010   -4.0742 H   0  0  0  0  0  0  0  0  0  0  0  0
   -1.9737    0.7770   -5.3626 Si  0  0  0  0  0  4  0  0  0  0  0  0
   -0.8223    1.6543   -5.6198 H   0  0  0  0  0  0  0  0  0  0  0  0
   -3.0600    1.5885   -4.7723 H   0  0  0  0  0  0  0  0  0  0  0  0
   -2.6544   -0.1197   -7.3008 Si  0  0  0  0  0  4  0  0  0  0  0  0
   -4.1204   -0.2518   -7.2679 H   0  0  0  0  0  0  0  0  0  0  0  0
   -2.0461   -1.4554   -7.4363 H   0  0  0  0  0  0  0  0  0  0  0  0
    2.7550    1.3656   -6.5068 Si  0  0  0  0  0  4  0  0  0  0  0  0
    1.3424    1.6956   -6.8342 H   0  0  0  0  0  0  0  0  0  0  0  0
    3.4335    2.6599   -6.2139 H   0  0  0  0  0  0  0  0  0  0  0  0
    3.7891    0.4046   -8.1900 Si  0  0  0  0  0  4  0  0  0  0  0  0
    3.4126    1.1219   -9.4405 H   0  0  0  0  0  0  0  0  0  0  0  0
    5.2500    0.5694   -8.0458 H   0  0  0  0  0  0  0  0  0  0  0  0
   -2.0191    1.1209   -9.0350 Si  0  0  0  0  0  4  0  0  0  0  0  0
   -1.8033    2.5123   -8.5973 H   0  0  0  0  0  0  0  0  0  0  0  0
   -0.7638    0.5805   -9.5807 H   0  0  0  0  0  0  0  0  0  0  0  0
    3.3054   -1.7243   -8.4453 Si  0  0  0  0  0  4  0  0  0  0  0  0
    4.1583   -2.6047   -7.6568 H   0  0  0  0  0  0  0  0  0  0  0  0
    3.5276   -2.0852   -9.8745 H   0  0  0  0  0  0  0  0  0  0  0  0
   -3.5467    1.0430  -10.6660 Si  0  0  0  0  0  4  0  0  0  0  0  0
   -3.1005    0.1720  -11.7522 H   0  0  0  0  0  0  0  0  0  0  0  0
   -3.8012    2.3729  -11.2289 H   0  0  0  0  0  0  0  0  0  0  0  0
   -5.4682    0.2557   -9.8360 Si  0  0  0  0  0  4  0  0  0  0  0  0
   -5.2340   -1.0523   -9.1843 H   0  0  0  0  0  0  0  0  0  0  0  0
   -6.4534    0.1128  -10.9186 H   0  0  0  0  0  0  0  0  0  0  0  0
   -5.9718    1.1675   -8.7888 H   0  0  0  0  0  0  0  0  0  0  0  0
    1.1838   -2.1952   -7.9696 Si  0  0  0  0  0  4  0  0  0  0  0  0
    0.2470   -1.4602   -8.8216 H   0  0  0  0  0  0  0  0  0  0  0  0
    0.9790   -3.6375   -8.2666 H   0  0  0  0  0  0  0  0  0  0  0  0
    0.9009   -2.0192   -6.5421 H   0  0  0  0  0  0  0  0  0  0  0  0
  1  2  1  0
  1  5  1  0
  2  3  1  0
  2  4  1  0
  2  8  1  0
  5  6  1  0
  5  7  1  0
  5 11  1  0
  8  9  1  0
  8 10  1  0
  8 17  1  0
 11 12  1  0
 11 13  1  0
 11 14  1  0
 14 15  1  0
 14 16  1  0
 14 23  1  0
 17 18  1  0
 17 19  1  0
 17 20  1  0
 20 21  1  0
 20 22  1  0
 20 26  1  0
 23 24  1  0
 23 25  1  0
 23 29  1  0
 26 27  1  0
 26 28  1  0
 26 36  1  0
 29 30  1  0
 29 31  1  0
 29 32  1  0
 32 33  1  0
 32 34  1  0
 32 35  1  0
 36 37  1  0
 36 38  1  0
 36 39  1  0
M  CHG  1   1   1
M  RAD  1   1   2
M  END
$$$$
