
     RDKit          3D

 39 38  0  0  0  0  0  0  0  0999 V2000
    0.0020   -0.0003    3.1887 S   0  0  0  0  0  2  0  0  0  0  0  0
   -2.0368    0.5495    3.2961 Si  0  0  0  0  0  4  0  0  0  0  0  0
   -2.2693    1.9547    2.8579 H   0  0  0  0  0  0  0  0  0  0  0  0
   -2.7894   -0.2841    2.3146 H   0  0  0  0  0  0  0  0  0  0  0  0
    1.1449    0.6402    4.8603 Si  0  0  0  0  0  4  0  0  0  0  0  0
    0.8147    1.9748    5.3210 H   0  0  0  0  0  0  0  0  0  0  0  0
    2.5779    0.6677    4.4488 H   0  0  0  0  0  0  0  0  0  0  0  0
   -2.9370    0.2162    5.2866 Si  0  0  0  0  0  4  0  0  0  0  0  0
   -2.6760   -1.1742    5.6894 H   0  0  0  0  0  0  0  0  0  0  0  0
   -4.4161    0.3297    5.1393 H   0  0  0  0  0  0  0  0  0  0  0  0
    0.9430   -0.9018    6.4615 Si  0  0  0  0  0  4  0  0  0  0  0  0
    1.6676   -2.1104    5.9848 H   0  0  0  0  0  0  0  0  0  0  0  0
   -0.4658   -1.3163    6.6168 H   0  0  0  0  0  0  0  0  0  0  0  0
    1.8000   -0.2361    8.3830 Si  0  0  0  0  0  4  0  0  0  0  0  0
    3.1358   -0.8315    8.5458 H   0  0  0  0  0  0  0  0  0  0  0  0
    1.9563    1.2130    8.3673 H   0  0  0  0  0  0  0  0  0  0  0  0
   -2.2869    1.6916    6.7945 Si  0  0  0  0  0  4  0  0  0  0  0  0
   -1.6694    1.0196    7.9620 H   0  0  0  0  0  0  0  0  0  0  0  0
   -1.3322    2.6371    6.1658 H   0  0  0  0  0  0  0  0  0  0  0  0
   -4.0034    2.9397    7.5344 Si  0  0  0  0  0  4  0  0  0  0  0  0
   -5.0357    2.1276    8.1513 H   0  0  0  0  0  0  0  0  0  0  0  0
   -4.5102    3.6972    6.3599 H   0  0  0  0  0  0  0  0  0  0  0  0
    0.5272   -0.8084   10.1158 Si  0  0  0  0  0  4  0  0  0  0  0  0
    1.3088   -1.6100   11.0755 H   0  0  0  0  0  0  0  0  0  0  0  0
    0.0262    0.3712   10.8446 H   0  0  0  0  0  0  0  0  0  0  0  0
   -3.1477    4.4360    8.9764 Si  0  0  0  0  0  4  0  0  0  0  0  0
   -3.6682    5.7741    8.7371 H   0  0  0  0  0  0  0  0  0  0  0  0
   -3.4584    3.9529   10.3423 H   0  0  0  0  0  0  0  0  0  0  0  0
   -1.2300   -2.0151    9.4914 Si  0  0  0  0  0  4  0  0  0  0  0  0
   -2.0631   -1.3203    8.5123 H   0  0  0  0  0  0  0  0  0  0  0  0
   -2.0547   -2.2653   10.6768 H   0  0  0  0  0  0  0  0  0  0  0  0
   -0.6295   -3.9798    8.6371 Si  0  0  0  0  0  4  0  0  0  0  0  0
    0.1780   -4.7344    9.6072 H   0  0  0  0  0  0  0  0  0  0  0  0
    0.0491   -3.8533    7.3544 H   0  0  0  0  0  0  0  0  0  0  0  0
   -1.8620   -4.7598    8.4078 H   0  0  0  0  0  0  0  0  0  0  0  0
   -0.9192    4.5102    8.8105 Si  0  0  0  0  0  4  0  0  0  0  0  0
   -0.2853    4.5609   10.1285 H   0  0  0  0  0  0  0  0  0  0  0  0
   -0.4995    3.2177    8.1977 H   0  0  0  0  0  0  0  0  0  0  0  0
   -0.4689    5.5898    7.9362 H   0  0  0  0  0  0  0  0  0  0  0  0
  1  2  1  0
  1  5  1  0
  2  3  1  0
  2  4  1  0
  2  8  1  0
  5  6  1  0
  5  7  1  0
  5 11  1  0
  8  9  1  0
  8 10  1  0
  8 17  1  0
 11 12  1  0
 11 13  1  0
 11 14  1  0
 14 15  1  0
 14 16  1  0
 14 23  1  0
 17 18  1  0
 17 19  1  0
 17 20  1  0
 20 21  1  0
 20 22  1  0
 20 26  1  0
 23 24  1  0
 23 25  1  0
 23 29  1  0
 26 27  1  0
 26 28  1  0
 26 36  1  0
 29 30  1  0
 29 31  1  0
 29 32  1  0
 32 33  1  0
 32 34  1  0
 32 35  1  0
 36 37  1  0
 36 38  1  0
 36 39  1  0
M  CHG  1   1   1
M  RAD  1   1   2
M  END
$$$$

     RDKit          3D

 39 38  0  0  0  0  0  0  0  0999 V2000
    0.0020   -0.0003    3.1887 S   0  0  0  0  0  2  0  0  0  0  0  0
    2.0947   -0.2753    3.3139 Si  0  0  0  0  0  4  0  0  0  0  0  0
    2.5148   -1.6377    2.8802 H   0  0  0  0  0  0  0  0  0  0  0  0
    2.7386    0.6499    2.3371 H   0  0  0  0  0  0  0  0  0  0  0  0
   -1.0601   -0.7853    4.8520 Si  0  0  0  0  0  4  0  0  0  0  0  0
   -0.5600   -2.0642    5.3178 H   0  0  0  0  0  0  0  0  0  0  0  0
   -2.4733   -1.0026    4.4287 H   0  0  0  0  0  0  0  0  0  0  0  0
    2.9260    0.1756    5.3112 Si  0  0  0  0  0  4  0  0  0  0  0  0
    2.4799    1.5195    5.7093 H   0  0  0  0  0  0  0  0  0  0  0  0
    4.4084    0.2587    5.1763 H   0  0  0  0  0  0  0  0  0  0  0  0
   -1.0775    0.7709    6.4520 Si  0  0  0  0  0  4  0  0  0  0  0  0
   -1.9517    1.8726    5.9672 H   0  0  0  0  0  0  0  0  0  0  0  0
    0.2627    1.3684    6.6181 H   0  0  0  0  0  0  0  0  0  0  0  0
   -1.8550   -0.0010    8.3675 Si  0  0  0  0  0  4  0  0  0  0  0  0
   -3.2592    0.4123    8.5183 H   0  0  0  0  0  0  0  0  0  0  0  0
   -1.8180   -1.4581    8.3532 H   0  0  0  0  0  0  0  0  0  0  0  0
    2.4643   -1.3719    6.8163 Si  0  0  0  0  0  4  0  0  0  0  0  0
    1.7535   -0.7868    7.9775 H   0  0  0  0  0  0  0  0  0  0  0  0
    1.6485   -2.4358    6.1814 H   0  0  0  0  0  0  0  0  0  0  0  0
    4.3246   -2.3812    7.5726 Si  0  0  0  0  0  4  0  0  0  0  0  0
    5.2351   -1.4392    8.1966 H   0  0  0  0  0  0  0  0  0  0  0  0
    4.9371   -3.0657    6.4037 H   0  0  0  0  0  0  0  0  0  0  0  0
   -0.6839    0.7359   10.1097 Si  0  0  0  0  0  4  0  0  0  0  0  0
   -1.5727    1.4276   11.0615 H   0  0  0  0  0  0  0  0  0  0  0  0
   -0.0373   -0.3665   10.8448 H   0  0  0  0  0  0  0  0  0  0  0  0
    3.6624   -3.9766    9.0102 Si  0  0  0  0  0  4  0  0  0  0  0  0
    4.3575   -5.2342    8.7776 H   0  0  0  0  0  0  0  0  0  0  0  0
    3.8949   -3.4557   10.3777 H   0  0  0  0  0  0  0  0  0  0  0  0
    0.9033    2.1642    9.4977 Si  0  0  0  0  0  4  0  0  0  0  0  0
    1.8293    1.5851    8.5268 H   0  0  0  0  0  0  0  0  0  0  0  0
    1.6776    2.5221   10.6895 H   0  0  0  0  0  0  0  0  0  0  0  0
    0.0553    4.0314    8.6349 Si  0  0  0  0  0  4  0  0  0  0  0  0
   -0.8532    4.6732    9.5969 H   0  0  0  0  0  0  0  0  0  0  0  0
   -0.5897    3.8154    7.3469 H   0  0  0  0  0  0  0  0  0  0  0  0
    1.1756    4.9676    8.4144 H   0  0  0  0  0  0  0  0  0  0  0  0
    1.4648   -4.3453    8.8260 Si  0  0  0  0  0  4  0  0  0  0  0  0
    0.8321   -4.4786   10.1388 H   0  0  0  0  0  0  0  0  0  0  0  0
    0.8829   -3.1201    8.2074 H   0  0  0  0  0  0  0  0  0  0  0  0
    1.1688   -5.4757    7.9500 H   0  0  0  0  0  0  0  0  0  0  0  0
  1  2  1  0
  1  5  1  0
  2  3  1  0
  2  4  1  0
  2  8  1  0
  5  6  1  0
  5  7  1  0
  5 11  1  0
  8  9  1  0
  8 10  1  0
  8 17  1  0
 11 12  1  0
 11 13  1  0
 11 14  1  0
 14 15  1  0
 14 16  1  0
 14 23  1  0
 17 18  1  0
 17 19  1  0
 17 20  1  0
 20 21  1  0
 20 22  1  0
 20 26  1  0
 23 24  1  0
 23 25  1  0
 23 29  1  0
 26 27  1  0
 26 28  1  0
 26 36  1  0
 29 30  1  0
 29 31  1  0
 29 32  1  0
 32 33  1  0
 32 34  1  0
 32 35  1  0
 36 37  1  0
 36 38  1  0
 36 39  1  0
M  CHG  1   1   1
M  RAD  1   1   2
M  END
$$$$

     RDKit          3D

 39 38  0  0  0  0  0  0  0  0999 V2000
    0.0020   -0.0003    3.1887 S   0  0  0  0  0  2  0  0  0  0  0  0
   -0.2909   -1.6433    4.4780 Si  0  0  0  0  0  4  0  0  0  0  0  0
   -1.3300   -2.5088    3.8623 H   0  0  0  0  0  0  0  0  0  0  0  0
   -0.8160   -1.2688    5.8038 H   0  0  0  0  0  0  0  0  0  0  0  0
    1.4410    1.3875    3.7354 Si  0  0  0  0  0  4  0  0  0  0  0  0
    2.6942    1.1580    2.9595 H   0  0  0  0  0  0  0  0  0  0  0  0
    0.9961    2.7555    3.3368 H   0  0  0  0  0  0  0  0  0  0  0  0
    1.5194   -2.8786    4.7709 Si  0  0  0  0  0  4  0  0  0  0  0  0
    2.6003   -2.4317    3.9001 H   0  0  0  0  0  0  0  0  0  0  0  0
    1.2579   -4.3161    4.4768 H   0  0  0  0  0  0  0  0  0  0  0  0
    1.9798    1.4570    5.8704 Si  0  0  0  0  0  4  0  0  0  0  0  0
    2.6309    2.7688    6.1320 H   0  0  0  0  0  0  0  0  0  0  0  0
    3.0258    0.4405    6.1632 H   0  0  0  0  0  0  0  0  0  0  0  0
    0.2584    1.2713    7.2274 Si  0  0  0  0  0  4  0  0  0  0  0  0
    0.5046    0.2206    8.2011 H   0  0  0  0  0  0  0  0  0  0  0  0
   -0.9599    1.0434    6.4312 H   0  0  0  0  0  0  0  0  0  0  0  0
    2.1965   -2.8141    6.9204 Si  0  0  0  0  0  4  0  0  0  0  0  0
    3.5656   -3.3708    6.9338 H   0  0  0  0  0  0  0  0  0  0  0  0
    2.2573   -1.4540    7.4202 H   0  0  0  0  0  0  0  0  0  0  0  0
    0.8344   -3.9921    8.2185 Si  0  0  0  0  0  4  0  0  0  0  0  0
   -0.1813   -4.7119    7.4748 H   0  0  0  0  0  0  0  0  0  0  0  0
    1.6602   -4.9380    9.0081 H   0  0  0  0  0  0  0  0  0  0  0  0
   -0.1020    3.1835    8.3698 Si  0  0  0  0  0  4  0  0  0  0  0  0
    0.8233    3.2958    9.5003 H   0  0  0  0  0  0  0  0  0  0  0  0
   -0.0093    4.3169    7.4449 H   0  0  0  0  0  0  0  0  0  0  0  0
   -0.1856   -2.6582    9.7183 Si  0  0  0  0  0  4  0  0  0  0  0  0
   -1.1242   -1.7565    9.0610 H   0  0  0  0  0  0  0  0  0  0  0  0
   -0.9311   -3.5603   10.6356 H   0  0  0  0  0  0  0  0  0  0  0  0
   -2.2376    3.0924    9.0810 Si  0  0  0  0  0  4  0  0  0  0  0  0
   -2.8698    4.4173    8.9964 H   0  0  0  0  0  0  0  0  0  0  0  0
   -3.0262    2.1991    8.1934 H   0  0  0  0  0  0  0  0  0  0  0  0
   -2.3450    2.2473   11.1377 Si  0  0  0  0  0  4  0  0  0  0  0  0
   -3.5002    2.8577   11.8154 H   0  0  0  0  0  0  0  0  0  0  0  0
   -1.0871    2.5603   11.8284 H   0  0  0  0  0  0  0  0  0  0  0  0
   -2.5844    0.7842   11.1000 H   0  0  0  0  0  0  0  0  0  0  0  0
    1.2938   -1.5293   10.9214 Si  0  0  0  0  0  4  0  0  0  0  0  0
    2.4202   -1.0443   10.1455 H   0  0  0  0  0  0  0  0  0  0  0  0
    0.5963   -0.3518   11.5063 H   0  0  0  0  0  0  0  0  0  0  0  0
    1.7520   -2.3366   12.0744 H   0  0  0  0  0  0  0  0  0  0  0  0
  1  2  1  0
  1  5  1  0
  2  3  1  0
  2  4  1  0
  2  8  1  0
  5  6  1  0
  5  7  1  0
  5 11  1  0
  8  9  1  0
  8 10  1  0
  8 17  1  0
 11 12  1  0
 11 13  1  0
 11 14  1  0
 14 15  1  0
 14 16  1  0
 14 23  1  0
 17 18  1  0
 17 19  1  0
 17 20  1  0
 20 21  1  0
 20 22  1  0
 20 26  1  0
 23 24  1  0
 23 25  1  0
 23 29  1  0
 26 27  1  0
 26 28  1  0
 26 36  1  0
 29 30  1  0
 29 31  1  0
 29 32  1  0
 32 33  1  0
 32 34  1  0
 32 35  1  0
 36 37  1  0
 36 38  1  0
 36 39  1  0
M  CHG  1   1   1
M  RAD  1   1   2
M  END
$$$$

     RDKit          3D

 39 38  0  0  0  0  0  0  0  0999 V2000
    0.0020   -0.0003    3.1887 S   0  0  0  0  0  2  0  0  0  0  0  0
    1.2344   -1.1187    4.4841 Si  0  0  0  0  0  4  0  0  0  0  0  0
    1.4141   -2.4615    3.8737 H   0  0  0  0  0  0  0  0  0  0  0  0
    0.6359   -1.3584    5.8100 H   0  0  0  0  0  0  0  0  0  0  0  0
   -0.4065    1.9589    3.7273 Si  0  0  0  0  0  4  0  0  0  0  0  0
    0.4566    2.8942    2.9490 H   0  0  0  0  0  0  0  0  0  0  0  0
   -1.8006    2.3098    3.3253 H   0  0  0  0  0  0  0  0  0  0  0  0
    3.2440   -0.2438    4.7765 Si  0  0  0  0  0  4  0  0  0  0  0  0
    3.4429    0.9057    3.9015 H   0  0  0  0  0  0  0  0  0  0  0  0
    4.3215   -1.2321    4.4877 H   0  0  0  0  0  0  0  0  0  0  0  0
   -0.1812    2.4601    5.8608 Si  0  0  0  0  0  4  0  0  0  0  0  0
   -0.9448    3.7110    6.1164 H   0  0  0  0  0  0  0  0  0  0  0  0
    1.2359    2.8047    6.1542 H   0  0  0  0  0  0  0  0  0  0  0  0
   -0.9432    0.9097    7.2226 Si  0  0  0  0  0  4  0  0  0  0  0  0
    0.0757    0.5619    8.1991 H   0  0  0  0  0  0  0  0  0  0  0  0
   -1.3984   -0.2457    6.4302 H   0  0  0  0  0  0  0  0  0  0  0  0
    3.5471    0.3718    6.9240 Si  0  0  0  0  0  4  0  0  0  0  0  0
    4.7476    1.2339    6.9358 H   0  0  0  0  0  0  0  0  0  0  0  0
    2.4277    1.1498    7.4193 H   0  0  0  0  0  0  0  0  0  0  0  0
    3.8163   -1.4035    8.2294 Si  0  0  0  0  0  4  0  0  0  0  0  0
    3.8853   -2.6494    7.4905 H   0  0  0  0  0  0  0  0  0  0  0  0
    5.0556   -1.2056    9.0200 H   0  0  0  0  0  0  0  0  0  0  0  0
   -2.7551    1.6279    8.3596 Si  0  0  0  0  0  4  0  0  0  0  0  0
   -2.3587    2.4750    9.4875 H   0  0  0  0  0  0  0  0  0  0  0  0
   -3.6635    2.3066    7.4308 H   0  0  0  0  0  0  0  0  0  0  0  0
    2.1419   -1.5502    9.7274 Si  0  0  0  0  0  4  0  0  0  0  0  0
    0.8797   -1.8665    9.0694 H   0  0  0  0  0  0  0  0  0  0  0  0
    2.5068   -2.6582   10.6495 H   0  0  0  0  0  0  0  0  0  0  0  0
   -3.8168   -0.2251    9.0764 Si  0  0  0  0  0  4  0  0  0  0  0  0
   -5.2747   -0.0545    8.9891 H   0  0  0  0  0  0  0  0  0  0  0  0
   -3.4799   -1.3718    8.1937 H   0  0  0  0  0  0  0  0  0  0  0  0
   -3.1619   -0.7584   11.1361 Si  0  0  0  0  0  4  0  0  0  0  0  0
   -4.2948   -1.4081   11.8148 H   0  0  0  0  0  0  0  0  0  0  0  0
   -2.7575    0.4755   11.8227 H   0  0  0  0  0  0  0  0  0  0  0  0
   -2.0512   -1.7406   11.1038 H   0  0  0  0  0  0  0  0  0  0  0  0
    1.9731    0.3079   10.9231 Si  0  0  0  0  0  4  0  0  0  0  0  0
    2.1640    1.5165   10.1428 H   0  0  0  0  0  0  0  0  0  0  0  0
    0.6042    0.3472   11.5059 H   0  0  0  0  0  0  0  0  0  0  0  0
    2.8987    0.2699   12.0776 H   0  0  0  0  0  0  0  0  0  0  0  0
  1  2  1  0
  1  5  1  0
  2  3  1  0
  2  4  1  0
  2  8  1  0
  5  6  1  0
  5  7  1  0
  5 11  1  0
  8  9  1  0
  8 10  1  0
  8 17  1  0
 11 12  1  0
 11 13  1  0
 11 14  1  0
 14 15  1  0
 14 16  1  0
 14 23  1  0
 17 18  1  0
 17 19  1  0
 17 20  1  0
 20 21  1  0
 20 22  1  0
 20 26  1  0
 23 24  1  0
 23 25  1  0
 23 29  1  0
 26 27  1  0
 26 28  1  0
 26 36  1  0
 29 30  1  0
 29 31  1  0
 29 32  1  0
 32 33  1  0
 32 34  1  0
 32 35  1  0
 36 37  1  0
 36 38  1  0
 36 39  1  0
M  CHG  1   1   1
M  RAD  1   1   2
M  END
$$$$

     RDKit          3D

 39 38  0  0  0  0  0  0  0  0999 V2000
    0.0020   -0.0003    3.1887 S   0  0  0  0  0  2  0  0  0  0  0  0
   -1.9277   -0.7181    3.2731 Si  0  0  0  0  0  4  0  0  0  0  0  0
   -1.9313   -2.2107    3.3188 H   0  0  0  0  0  0  0  0  0  0  0  0
   -2.5864   -0.4215    1.9607 H   0  0  0  0  0  0  0  0  0  0  0  0
    0.5605    1.5715    4.4602 Si  0  0  0  0  0  4  0  0  0  0  0  0
    1.3189    2.5644    3.6417 H   0  0  0  0  0  0  0  0  0  0  0  0
   -0.5586    2.3197    5.0287 H   0  0  0  0  0  0  0  0  0  0  0  0
   -3.2592    0.0414    4.8245 Si  0  0  0  0  0  4  0  0  0  0  0  0
   -4.4425   -0.8536    4.9015 H   0  0  0  0  0  0  0  0  0  0  0  0
   -3.7992    1.3581    4.4009 H   0  0  0  0  0  0  0  0  0  0  0  0
    1.9643    0.7839    5.9730 Si  0  0  0  0  0  4  0  0  0  0  0  0
    3.3092    0.7013    5.3467 H   0  0  0  0  0  0  0  0  0  0  0  0
    1.5847   -0.6327    6.2456 H   0  0  0  0  0  0  0  0  0  0  0  0
    2.0848    1.9450    7.8236 Si  0  0  0  0  0  4  0  0  0  0  0  0
    1.7907    1.0612    8.9710 H   0  0  0  0  0  0  0  0  0  0  0  0
    3.4761    2.4331    8.0511 H   0  0  0  0  0  0  0  0  0  0  0  0
   -2.4307    0.2399    6.8365 Si  0  0  0  0  0  4  0  0  0  0  0  0
   -3.4264    1.0138    7.6316 H   0  0  0  0  0  0  0  0  0  0  0  0
   -1.1903    0.9844    6.9205 H   0  0  0  0  0  0  0  0  0  0  0  0
   -2.1864   -1.6816    7.9224 Si  0  0  0  0  0  4  0  0  0  0  0  0
   -1.5656   -1.3836    9.2239 H   0  0  0  0  0  0  0  0  0  0  0  0
   -3.5037   -2.2872    8.2261 H   0  0  0  0  0  0  0  0  0  0  0  0
    0.7006    3.6674    7.9170 Si  0  0  0  0  0  4  0  0  0  0  0  0
    0.1164    3.9735    6.5802 H   0  0  0  0  0  0  0  0  0  0  0  0
    1.4148    4.8848    8.3331 H   0  0  0  0  0  0  0  0  0  0  0  0
   -0.9126   -3.1281    6.8420 Si  0  0  0  0  0  4  0  0  0  0  0  0
   -0.3832   -2.5632    5.5944 H   0  0  0  0  0  0  0  0  0  0  0  0
   -1.6764   -4.3374    6.5516 H   0  0  0  0  0  0  0  0  0  0  0  0
   -0.9382    3.3428    9.4085 Si  0  0  0  0  0  4  0  0  0  0  0  0
   -2.1643    2.9941    8.6688 H   0  0  0  0  0  0  0  0  0  0  0  0
   -1.2485    4.6133   10.1243 H   0  0  0  0  0  0  0  0  0  0  0  0
   -0.4210    1.8185   10.9072 Si  0  0  0  0  0  4  0  0  0  0  0  0
   -0.5895    2.3317   12.2970 H   0  0  0  0  0  0  0  0  0  0  0  0
    0.9263    1.3011   10.8035 H   0  0  0  0  0  0  0  0  0  0  0  0
   -1.3589    0.6869   10.7835 H   0  0  0  0  0  0  0  0  0  0  0  0
    0.8495   -3.7176    8.0920 Si  0  0  0  0  0  4  0  0  0  0  0  0
    1.2071   -5.1120    7.8923 H   0  0  0  0  0  0  0  0  0  0  0  0
    0.5495   -3.4677    9.5279 H   0  0  0  0  0  0  0  0  0  0  0  0
    1.9835   -2.8123    7.7588 H   0  0  0  0  0  0  0  0  0  0  0  0
  1  2  1  0
  1  5  1  0
  2  3  1  0
  2  4  1  0
  2  8  1  0
  5  6  1  0
  5  7  1  0
  5 11  1  0
  8  9  1  0
  8 10  1  0
  8 17  1  0
 11 12  1  0
 11 13  1  0
 11 14  1  0
 14 15  1  0
 14 16  1  0
 14 23  1  0
 17 18  1  0
 17 19  1  0
 17 20  1  0
 20 21  1  0
 20 22  1  0
 20 26  1  0
 23 24  1  0
 23 25  1  0
 23 29  1  0
 26 27  1  0
 26 28  1  0
 26 36  1  0
 29 30  1  0
 29 31  1  0
 29 32  1  0
 32 33  1  0
 32 34  1  0
 32 35  1  0
 36 37  1  0
 36 38  1  0
 36 39  1  0
M  CHG  1   1   1
M  RAD  1   1   2
M  END
$$$$

     RDKit          3D

 39 38  0  0  0  0  0  0  0  0999 V2000
    0.0020   -0.0003    3.1887 S   0  0  0  0  0  2  0  0  0  0  0  0
    2.1013   -0.2195    3.3139 Si  0  0  0  0  0  4  0  0  0  0  0  0
    2.5576   -1.5702    2.8803 H   0  0  0  0  0  0  0  0  0  0  0  0
    2.7203    0.7224    2.3370 H   0  0  0  0  0  0  0  0  0  0  0  0
   -1.0387   -0.8132    4.8521 Si  0  0  0  0  0  4  0  0  0  0  0  0
   -0.5048   -2.0782    5.3180 H   0  0  0  0  0  0  0  0  0  0  0  0
   -2.4457   -1.0680    4.4289 H   0  0  0  0  0  0  0  0  0  0  0  0
    2.9203    0.2536    5.3111 Si  0  0  0  0  0  4  0  0  0  0  0  0
    2.4386    1.5852    5.7091 H   0  0  0  0  0  0  0  0  0  0  0  0
    4.3999    0.3763    5.1762 H   0  0  0  0  0  0  0  0  0  0  0  0
   -1.0976    0.7422    6.4519 Si  0  0  0  0  0  4  0  0  0  0  0  0
   -2.0009    1.8202    5.9670 H   0  0  0  0  0  0  0  0  0  0  0  0
    0.2262    1.3752    6.6180 H   0  0  0  0  0  0  0  0  0  0  0  0
   -1.8543   -0.0499    8.3676 Si  0  0  0  0  0  4  0  0  0  0  0  0
   -3.2689    0.3259    8.5183 H   0  0  0  0  0  0  0  0  0  0  0  0
   -1.7785   -1.5055    8.3534 H   0  0  0  0  0  0  0  0  0  0  0  0
    2.5001   -1.3054    6.8165 Si  0  0  0  0  0  4  0  0  0  0  0  0
    1.7739   -0.7393    7.9775 H   0  0  0  0  0  0  0  0  0  0  0  0
    1.7128   -2.3908    6.1817 H   0  0  0  0  0  0  0  0  0  0  0  0
    4.3866   -2.2647    7.5728 Si  0  0  0  0  0  4  0  0  0  0  0  0
    5.2717   -1.2987    8.1966 H   0  0  0  0  0  0  0  0  0  0  0  0
    5.0171   -2.9328    6.4039 H   0  0  0  0  0  0  0  0  0  0  0  0
   -0.7032    0.7181   10.1096 Si  0  0  0  0  0  4  0  0  0  0  0  0
   -1.6101    1.3860   11.0613 H   0  0  0  0  0  0  0  0  0  0  0  0
   -0.0274   -0.3665   10.8449 H   0  0  0  0  0  0  0  0  0  0  0  0
    3.7671   -3.8770    9.0106 Si  0  0  0  0  0  4  0  0  0  0  0  0
    4.4954   -5.1157    8.7781 H   0  0  0  0  0  0  0  0  0  0  0  0
    3.9857   -3.3500   10.3781 H   0  0  0  0  0  0  0  0  0  0  0  0
    0.8454    2.1881    9.4974 Si  0  0  0  0  0  4  0  0  0  0  0  0
    1.7865    1.6338    8.5266 H   0  0  0  0  0  0  0  0  0  0  0  0
    1.6099    2.5667   10.6892 H   0  0  0  0  0  0  0  0  0  0  0  0
   -0.0521    4.0320    8.6344 Si  0  0  0  0  0  4  0  0  0  0  0  0
   -0.9773    4.6495    9.5964 H   0  0  0  0  0  0  0  0  0  0  0  0
   -0.6911    3.7987    7.3465 H   0  0  0  0  0  0  0  0  0  0  0  0
    1.0429    4.9977    8.4138 H   0  0  0  0  0  0  0  0  0  0  0  0
    1.5801   -4.3041    8.8265 Si  0  0  0  0  0  4  0  0  0  0  0  0
    0.9513   -4.4541   10.1393 H   0  0  0  0  0  0  0  0  0  0  0  0
    0.9658   -3.0950    8.2078 H   0  0  0  0  0  0  0  0  0  0  0  0
    1.3143   -5.4421    7.9506 H   0  0  0  0  0  0  0  0  0  0  0  0
  1  2  1  0
  1  5  1  0
  2  3  1  0
  2  4  1  0
  2  8  1  0
  5  6  1  0
  5  7  1  0
  5 11  1  0
  8  9  1  0
  8 10  1  0
  8 17  1  0
 11 12  1  0
 11 13  1  0
 11 14  1  0
 14 15  1  0
 14 16  1  0
 14 23  1  0
 17 18  1  0
 17 19  1  0
 17 20  1  0
 20 21  1  0
 20 22  1  0
 20 26  1  0
 23 24  1  0
 23 25  1  0
 23 29  1  0
 26 27  1  0
 26 28  1  0
 26 36  1  0
 29 30  1  0
 29 31  1  0
 29 32  1  0
 32 33  1  0
 32 34  1  0
 32 35  1  0
 36 37  1  0
 36 38  1  0
 36 39  1  0
M  CHG  1   1   1
M  RAD  1   1   2
M  END
$$$$

     RDKit          3D

 39 38  0  0  0  0  0  0  0  0999 V2000
    0.0020   -0.0003    3.1887 S   0  0  0  0  0  2  0  0  0  0  0  0
    1.9044    0.7855    3.2883 Si  0  0  0  0  0  4  0  0  0  0  0  0
    1.8547    2.2773    3.3318 H   0  0  0  0  0  0  0  0  0  0  0  0
    2.5841    0.5109    1.9818 H   0  0  0  0  0  0  0  0  0  0  0  0
   -0.5111   -1.5895    4.4577 Si  0  0  0  0  0  4  0  0  0  0  0  0
   -1.2269   -2.6097    3.6343 H   0  0  0  0  0  0  0  0  0  0  0  0
    0.6290   -2.2970    5.0365 H   0  0  0  0  0  0  0  0  0  0  0  0
    3.2488    0.0753    4.8517 Si  0  0  0  0  0  4  0  0  0  0  0  0
    4.3990    1.0118    4.9374 H   0  0  0  0  0  0  0  0  0  0  0  0
    3.8387   -1.2219    4.4345 H   0  0  0  0  0  0  0  0  0  0  0  0
   -1.9546   -0.8505    5.9576 Si  0  0  0  0  0  4  0  0  0  0  0  0
   -3.2963   -0.8163    5.3200 H   0  0  0  0  0  0  0  0  0  0  0  0
   -1.6277    0.5789    6.2314 H   0  0  0  0  0  0  0  0  0  0  0  0
   -2.0493   -2.0131    7.8087 Si  0  0  0  0  0  4  0  0  0  0  0  0
   -1.7964   -1.1182    8.9573 H   0  0  0  0  0  0  0  0  0  0  0  0
   -3.4244   -2.5499    8.0253 H   0  0  0  0  0  0  0  0  0  0  0  0
    2.4110   -0.1502    6.8571 Si  0  0  0  0  0  4  0  0  0  0  0  0
    3.4268   -0.8875    7.6615 H   0  0  0  0  0  0  0  0  0  0  0  0
    1.1971   -0.9381    6.9317 H   0  0  0  0  0  0  0  0  0  0  0  0
    2.0897    1.7626    7.9381 Si  0  0  0  0  0  4  0  0  0  0  0  0
    1.4689    1.4443    9.2348 H   0  0  0  0  0  0  0  0  0  0  0  0
    3.3821    2.4149    8.2520 H   0  0  0  0  0  0  0  0  0  0  0  0
   -0.6058   -3.6853    7.9161 Si  0  0  0  0  0  4  0  0  0  0  0  0
    0.0000   -3.9720    6.5848 H   0  0  0  0  0  0  0  0  0  0  0  0
   -1.2799   -4.9268    8.3280 H   0  0  0  0  0  0  0  0  0  0  0  0
    0.7746    3.1619    6.8451 Si  0  0  0  0  0  4  0  0  0  0  0  0
    0.2760    2.5772    5.5940 H   0  0  0  0  0  0  0  0  0  0  0  0
    1.4975    4.3971    6.5594 H   0  0  0  0  0  0  0  0  0  0  0  0
    1.0078   -3.3011    9.4208 Si  0  0  0  0  0  4  0  0  0  0  0  0
    2.2270   -2.9101    8.6909 H   0  0  0  0  0  0  0  0  0  0  0  0
    1.3569   -4.5591   10.1410 H   0  0  0  0  0  0  0  0  0  0  0  0
    0.4244   -1.7945   10.9130 Si  0  0  0  0  0  4  0  0  0  0  0  0
    0.5993   -2.2998   12.3048 H   0  0  0  0  0  0  0  0  0  0  0  0
   -0.9395   -1.3252   10.7973 H   0  0  0  0  0  0  0  0  0  0  0  0
    1.3226   -0.6305   10.7955 H   0  0  0  0  0  0  0  0  0  0  0  0
   -1.0178    3.6899    8.0795 Si  0  0  0  0  0  4  0  0  0  0  0  0
   -1.4228    5.0706    7.8749 H   0  0  0  0  0  0  0  0  0  0  0  0
   -0.7212    3.4525    9.5182 H   0  0  0  0  0  0  0  0  0  0  0  0
   -2.1161    2.7447    7.7381 H   0  0  0  0  0  0  0  0  0  0  0  0
  1  2  1  0
  1  5  1  0
  2  3  1  0
  2  4  1  0
  2  8  1  0
  5  6  1  0
  5  7  1  0
  5 11  1  0
  8  9  1  0
  8 10  1  0
  8 17  1  0
 11 12  1  0
 11 13  1  0
 11 14  1  0
 14 15  1  0
 14 16  1  0
 14 23  1  0
 17 18  1  0
 17 19  1  0
 17 20  1  0
 20 21  1  0
 20 22  1  0
 20 26  1  0
 23 24  1  0
 23 25  1  0
 23 29  1  0
 26 27  1  0
 26 28  1  0
 26 36  1  0
 29 30  1  0
 29 31  1  0
 29 32  1  0
 32 33  1  0
 32 34  1  0
 32 35  1  0
 36 37  1  0
 36 38  1  0
 36 39  1  0
M  CHG  1   1   1
M  RAD  1   1   2
M  END
$$$$

     RDKit          3D

 39 38  0  0  0  0  0  0  0  0999 V2000
    0.0020   -0.0003    3.1887 S   0  0  0  0  0  2  0  0  0  0  0  0
   -1.6419    0.6484    4.3686 Si  0  0  0  0  0  4  0  0  0  0  0  0
   -1.2591    0.6366    5.7707 H   0  0  0  0  0  0  0  0  0  0  0  0
   -2.7912   -0.2548    4.0918 H   0  0  0  0  0  0  0  0  0  0  0  0
    1.7077   -0.3557    4.4035 Si  0  0  0  0  0  4  0  0  0  0  0  0
    2.0204    0.8999    5.1396 H   0  0  0  0  0  0  0  0  0  0  0  0
    2.8928   -0.6256    3.5610 H   0  0  0  0  0  0  0  0  0  0  0  0
   -2.3095    2.7108    3.8134 Si  0  0  0  0  0  4  0  0  0  0  0  0
   -3.7393    2.8179    4.2091 H   0  0  0  0  0  0  0  0  0  0  0  0
   -2.2077    2.9486    2.3873 H   0  0  0  0  0  0  0  0  0  0  0  0
    1.4075   -2.0547    5.8124 Si  0  0  0  0  0  4  0  0  0  0  0  0
    2.3145   -3.1764    5.4347 H   0  0  0  0  0  0  0  0  0  0  0  0
    1.8371   -1.6134    7.1400 H   0  0  0  0  0  0  0  0  0  0  0  0
   -0.6915   -2.7197    5.9011 Si  0  0  0  0  0  4  0  0  0  0  0  0
   -1.4435   -2.1247    4.7605 H   0  0  0  0  0  0  0  0  0  0  0  0
   -0.7292   -4.1904    5.6554 H   0  0  0  0  0  0  0  0  0  0  0  0
   -1.1917    4.2643    4.9362 Si  0  0  0  0  0  4  0  0  0  0  0  0
    0.1546    4.3652    4.3844 H   0  0  0  0  0  0  0  0  0  0  0  0
   -1.9223    5.5471    4.7696 H   0  0  0  0  0  0  0  0  0  0  0  0
   -1.1068    3.8094    7.1035 Si  0  0  0  0  0  4  0  0  0  0  0  0
   -1.8192    4.8058    7.9194 H   0  0  0  0  0  0  0  0  0  0  0  0
   -1.8042    2.5162    7.3187 H   0  0  0  0  0  0  0  0  0  0  0  0
   -1.6635   -2.3338    7.8406 Si  0  0  0  0  0  4  0  0  0  0  0  0
   -1.7693   -3.5404    8.6700 H   0  0  0  0  0  0  0  0  0  0  0  0
   -3.0633   -1.8966    7.5730 H   0  0  0  0  0  0  0  0  0  0  0  0
    0.9967    3.5263    7.8082 Si  0  0  0  0  0  4  0  0  0  0  0  0
    0.9760    2.9774    9.1597 H   0  0  0  0  0  0  0  0  0  0  0  0
    1.6274    2.5412    6.9135 H   0  0  0  0  0  0  0  0  0  0  0  0
   -0.6781   -0.7385    9.0138 Si  0  0  0  0  0  4  0  0  0  0  0  0
   -0.5598    0.5032    8.2103 H   0  0  0  0  0  0  0  0  0  0  0  0
   -1.5804   -0.3887   10.1456 H   0  0  0  0  0  0  0  0  0  0  0  0
    1.2576   -1.3723    9.8740 Si  0  0  0  0  0  4  0  0  0  0  0  0
    2.3230   -0.5430    9.2408 H   0  0  0  0  0  0  0  0  0  0  0  0
    1.3590   -1.1443   11.3113 H   0  0  0  0  0  0  0  0  0  0  0  0
    1.5670   -2.7743    9.5384 H   0  0  0  0  0  0  0  0  0  0  0  0
    2.1629    5.4006    7.7142 Si  0  0  0  0  0  4  0  0  0  0  0  0
    3.3080    5.2837    6.7736 H   0  0  0  0  0  0  0  0  0  0  0  0
    2.7687    5.6457    9.0474 H   0  0  0  0  0  0  0  0  0  0  0  0
    1.3788    6.5557    7.2933 H   0  0  0  0  0  0  0  0  0  0  0  0
  1  2  1  0
  1  5  1  0
  2  3  1  0
  2  4  1  0
  2  8  1  0
  5  6  1  0
  5  7  1  0
  5 11  1  0
  8  9  1  0
  8 10  1  0
  8 17  1  0
 11 12  1  0
 11 13  1  0
 11 14  1  0
 14 15  1  0
 14 16  1  0
 14 23  1  0
 17 18  1  0
 17 19  1  0
 17 20  1  0
 20 21  1  0
 20 22  1  0
 20 26  1  0
 23 24  1  0
 23 25  1  0
 23 29  1  0
 26 27  1  0
 26 28  1  0
 26 36  1  0
 29 30  1  0
 29 31  1  0
 29 32  1  0
 32 33  1  0
 32 34  1  0
 32 35  1  0
 36 37  1  0
 36 38  1  0
 36 39  1  0
M  CHG  1   1   1
M  RAD  1   1   2
M  END
$$$$
