
     RDKit          3D

 39 38  0  0  0  0  0  0  0  0999 V2000
    0.0244   -0.0140   -3.1936 S   0  0  0  0  0  2  0  0  0  0  0  0
   -0.1334   -2.1749   -3.2592 Si  0  0  0  0  0  4  0  0  0  0  0  0
    1.2032   -2.7210   -3.5929 H   0  0  0  0  0  0  0  0  0  0  0  0
   -0.6272   -2.7062   -1.9950 H   0  0  0  0  0  0  0  0  0  0  0  0
    0.7787    0.5947   -5.1294 Si  0  0  0  0  0  4  0  0  0  0  0  0
    0.8611    2.0484   -5.1583 H   0  0  0  0  0  0  0  0  0  0  0  0
   -0.1992    0.0990   -6.1269 H   0  0  0  0  0  0  0  0  0  0  0  0
   -1.5400   -2.6774   -4.9123 Si  0  0  0  0  0  4  0  0  0  0  0  0
   -1.8394   -1.5029   -5.7551 H   0  0  0  0  0  0  0  0  0  0  0  0
   -2.7779   -3.2201   -4.3415 H   0  0  0  0  0  0  0  0  0  0  0  0
    2.7753   -0.3452   -5.5158 Si  0  0  0  0  0  4  0  0  0  0  0  0
    3.0154   -1.3420   -4.4344 H   0  0  0  0  0  0  0  0  0  0  0  0
    3.8217    0.6675   -5.4370 H   0  0  0  0  0  0  0  0  0  0  0  0
    2.7219   -1.4267   -7.4361 Si  0  0  0  0  0  4  0  0  0  0  0  0
    1.3542   -1.8162   -7.8092 H   0  0  0  0  0  0  0  0  0  0  0  0
    3.4935   -2.6954   -7.3121 H   0  0  0  0  0  0  0  0  0  0  0  0
   -0.6742   -4.2386   -6.2680 Si  0  0  0  0  0  4  0  0  0  0  0  0
    0.6762   -3.9067   -6.6904 H   0  0  0  0  0  0  0  0  0  0  0  0
   -0.6744   -5.5323   -5.5487 H   0  0  0  0  0  0  0  0  0  0  0  0
   -1.9988   -4.3436   -8.0825 Si  0  0  0  0  0  4  0  0  0  0  0  0
   -3.1040   -5.2870   -7.8119 H   0  0  0  0  0  0  0  0  0  0  0  0
   -1.2312   -4.7270   -9.2610 H   0  0  0  0  0  0  0  0  0  0  0  0
    3.6485   -0.2689   -9.0987 Si  0  0  0  0  0  4  0  0  0  0  0  0
    2.5658    0.5583   -9.7034 H   0  0  0  0  0  0  0  0  0  0  0  0
    4.7139    0.6101   -8.6504 H   0  0  0  0  0  0  0  0  0  0  0  0
   -2.9202   -2.3356   -8.4512 Si  0  0  0  0  0  4  0  0  0  0  0  0
   -4.1630   -2.5209   -9.2220 H   0  0  0  0  0  0  0  0  0  0  0  0
   -3.2995   -1.6783   -7.1916 H   0  0  0  0  0  0  0  0  0  0  0  0
    4.3179   -1.7282  -10.6406 Si  0  0  0  0  0  4  0  0  0  0  0  0
    4.4421   -3.0921  -10.0511 H   0  0  0  0  0  0  0  0  0  0  0  0
    3.3855   -1.8401  -11.7545 H   0  0  0  0  0  0  0  0  0  0  0  0
    6.3279   -1.2002  -11.4541 Si  0  0  0  0  0  4  0  0  0  0  0  0
    7.3481   -1.1353  -10.4033 H   0  0  0  0  0  0  0  0  0  0  0  0
    6.2813    0.0050  -12.2803 H   0  0  0  0  0  0  0  0  0  0  0  0
    6.7250   -2.3137  -12.3531 H   0  0  0  0  0  0  0  0  0  0  0  0
   -1.4941   -1.0416   -9.5799 Si  0  0  0  0  0  4  0  0  0  0  0  0
   -2.0495   -0.7932  -10.9267 H   0  0  0  0  0  0  0  0  0  0  0  0
   -0.2025   -1.7060   -9.7279 H   0  0  0  0  0  0  0  0  0  0  0  0
   -1.2992    0.2291   -8.8619 H   0  0  0  0  0  0  0  0  0  0  0  0
  1  2  1  0
  1  5  1  0
  2  3  1  0
  2  4  1  0
  2  8  1  0
  5  6  1  0
  5  7  1  0
  5 11  1  0
  8  9  1  0
  8 10  1  0
  8 17  1  0
 11 12  1  0
 11 13  1  0
 11 14  1  0
 14 15  1  0
 14 16  1  0
 14 23  1  0
 17 18  1  0
 17 19  1  0
 17 20  1  0
 20 21  1  0
 20 22  1  0
 20 26  1  0
 23 24  1  0
 23 25  1  0
 23 29  1  0
 26 27  1  0
 26 28  1  0
 26 36  1  0
 29 30  1  0
 29 31  1  0
 29 32  1  0
 32 33  1  0
 32 34  1  0
 32 35  1  0
 36 37  1  0
 36 38  1  0
 36 39  1  0
M  CHG  1   1   1
M  RAD  1   1   2
M  END
$$$$

     RDKit          3D

 39 38  0  0  0  0  0  0  0  0999 V2000
    0.0244   -0.0140   -3.1936 S   0  0  0  0  0  2  0  0  0  0  0  0
    0.5747    1.9871   -3.8192 Si  0  0  0  0  0  4  0  0  0  0  0  0
    1.9105    2.3047   -3.3018 H   0  0  0  0  0  0  0  0  0  0  0  0
   -0.3527    2.9784   -3.2579 H   0  0  0  0  0  0  0  0  0  0  0  0
    0.4486   -1.3533   -4.8312 Si  0  0  0  0  0  4  0  0  0  0  0  0
    1.3452   -0.6756   -5.8113 H   0  0  0  0  0  0  0  0  0  0  0  0
    1.2017   -2.5180   -4.3410 H   0  0  0  0  0  0  0  0  0  0  0  0
    0.5514    2.0391   -6.0591 Si  0  0  0  0  0  4  0  0  0  0  0  0
    0.0418    0.7501   -6.6084 H   0  0  0  0  0  0  0  0  0  0  0  0
   -0.2688    3.1252   -6.5712 H   0  0  0  0  0  0  0  0  0  0  0  0
   -1.3950   -1.9332   -5.9123 Si  0  0  0  0  0  4  0  0  0  0  0  0
   -1.4013   -3.4193   -6.0196 H   0  0  0  0  0  0  0  0  0  0  0  0
   -1.4367   -1.4267   -7.2870 H   0  0  0  0  0  0  0  0  0  0  0  0
   -3.2404   -1.3258   -4.8617 Si  0  0  0  0  0  4  0  0  0  0  0  0
   -4.3749   -2.0957   -5.4274 H   0  0  0  0  0  0  0  0  0  0  0  0
   -3.1718   -1.6549   -3.4356 H   0  0  0  0  0  0  0  0  0  0  0  0
    2.6808    2.1996   -6.7601 Si  0  0  0  0  0  4  0  0  0  0  0  0
    3.4912    1.3551   -5.8702 H   0  0  0  0  0  0  0  0  0  0  0  0
    3.1580    3.5802   -6.6692 H   0  0  0  0  0  0  0  0  0  0  0  0
    2.8399    1.4319   -8.8593 Si  0  0  0  0  0  4  0  0  0  0  0  0
    2.6560    2.5424   -9.7917 H   0  0  0  0  0  0  0  0  0  0  0  0
    4.1910    0.8823   -9.0441 H   0  0  0  0  0  0  0  0  0  0  0  0
   -3.7026    0.8271   -5.0977 Si  0  0  0  0  0  4  0  0  0  0  0  0
   -2.5467    1.6833   -4.8456 H   0  0  0  0  0  0  0  0  0  0  0  0
   -4.7349    1.1795   -4.0918 H   0  0  0  0  0  0  0  0  0  0  0  0
    1.2722   -0.1146   -9.2636 Si  0  0  0  0  0  4  0  0  0  0  0  0
    1.1659   -1.0737   -8.1717 H   0  0  0  0  0  0  0  0  0  0  0  0
    1.6918   -0.8386  -10.4810 H   0  0  0  0  0  0  0  0  0  0  0  0
   -4.5191    1.3141   -7.0986 Si  0  0  0  0  0  4  0  0  0  0  0  0
   -5.9956    1.3269   -7.0708 H   0  0  0  0  0  0  0  0  0  0  0  0
   -4.0878    0.3552   -8.1154 H   0  0  0  0  0  0  0  0  0  0  0  0
   -3.8595    3.3615   -7.7536 Si  0  0  0  0  0  4  0  0  0  0  0  0
   -4.6409    3.7575   -8.9324 H   0  0  0  0  0  0  0  0  0  0  0  0
   -4.1247    4.3308   -6.6861 H   0  0  0  0  0  0  0  0  0  0  0  0
   -2.4290    3.3565   -8.0679 H   0  0  0  0  0  0  0  0  0  0  0  0
   -0.6765    0.8843   -9.6862 Si  0  0  0  0  0  4  0  0  0  0  0  0
   -0.4444    2.2060  -10.2888 H   0  0  0  0  0  0  0  0  0  0  0  0
   -1.5256    0.0553  -10.5651 H   0  0  0  0  0  0  0  0  0  0  0  0
   -1.4569    1.1027   -8.4494 H   0  0  0  0  0  0  0  0  0  0  0  0
  1  2  1  0
  1  5  1  0
  2  3  1  0
  2  4  1  0
  2  8  1  0
  5  6  1  0
  5  7  1  0
  5 11  1  0
  8  9  1  0
  8 10  1  0
  8 17  1  0
 11 12  1  0
 11 13  1  0
 11 14  1  0
 14 15  1  0
 14 16  1  0
 14 23  1  0
 17 18  1  0
 17 19  1  0
 17 20  1  0
 20 21  1  0
 20 22  1  0
 20 26  1  0
 23 24  1  0
 23 25  1  0
 23 29  1  0
 26 27  1  0
 26 28  1  0
 26 36  1  0
 29 30  1  0
 29 31  1  0
 29 32  1  0
 32 33  1  0
 32 34  1  0
 32 35  1  0
 36 37  1  0
 36 38  1  0
 36 39  1  0
M  CHG  1   1   1
M  RAD  1   1   2
M  END
$$$$

     RDKit          3D

 39 38  0  0  0  0  0  0  0  0999 V2000
    0.0244   -0.0140   -3.1936 S   0  0  0  0  0  2  0  0  0  0  0  0
   -0.0377   -2.1798   -3.2592 Si  0  0  0  0  0  4  0  0  0  0  0  0
    1.3216   -2.6662   -3.5931 H   0  0  0  0  0  0  0  0  0  0  0  0
   -0.5073   -2.7324   -1.9949 H   0  0  0  0  0  0  0  0  0  0  0  0
    0.7507    0.6275   -5.1295 Si  0  0  0  0  0  4  0  0  0  0  0  0
    0.7687    2.0833   -5.1584 H   0  0  0  0  0  0  0  0  0  0  0  0
   -0.2045    0.0890   -6.1268 H   0  0  0  0  0  0  0  0  0  0  0  0
   -1.4210   -2.7440   -4.9120 Si  0  0  0  0  0  4  0  0  0  0  0  0
   -1.7723   -1.5838   -5.7548 H   0  0  0  0  0  0  0  0  0  0  0  0
   -2.6336   -3.3408   -4.3410 H   0  0  0  0  0  0  0  0  0  0  0  0
    2.7868   -0.2232   -5.5163 Si  0  0  0  0  0  4  0  0  0  0  0  0
    3.0710   -1.2085   -4.4350 H   0  0  0  0  0  0  0  0  0  0  0  0
    3.7874    0.8347   -5.4377 H   0  0  0  0  0  0  0  0  0  0  0  0
    2.7810   -1.3060   -7.4366 Si  0  0  0  0  0  4  0  0  0  0  0  0
    1.4317   -1.7557   -7.8095 H   0  0  0  0  0  0  0  0  0  0  0  0
    3.6079   -2.5394   -7.3128 H   0  0  0  0  0  0  0  0  0  0  0  0
   -0.4874   -4.2653   -6.2679 Si  0  0  0  0  0  4  0  0  0  0  0  0
    0.8470   -3.8741   -6.6906 H   0  0  0  0  0  0  0  0  0  0  0  0
   -0.4302   -5.5578   -5.5486 H   0  0  0  0  0  0  0  0  0  0  0  0
   -1.8063   -4.4288   -8.0822 Si  0  0  0  0  0  4  0  0  0  0  0  0
   -2.8687   -5.4201   -7.8114 H   0  0  0  0  0  0  0  0  0  0  0  0
   -1.0227   -4.7779   -9.2608 H   0  0  0  0  0  0  0  0  0  0  0  0
    3.6552   -0.1084   -9.0994 Si  0  0  0  0  0  4  0  0  0  0  0  0
    2.5368    0.6701   -9.7038 H   0  0  0  0  0  0  0  0  0  0  0  0
    4.6807    0.8168   -8.6512 H   0  0  0  0  0  0  0  0  0  0  0  0
   -2.8156   -2.4635   -8.4507 Si  0  0  0  0  0  4  0  0  0  0  0  0
   -4.0492   -2.7036   -9.2213 H   0  0  0  0  0  0  0  0  0  0  0  0
   -3.2234   -1.8236   -7.1910 H   0  0  0  0  0  0  0  0  0  0  0  0
    4.3881   -1.5367  -10.6414 Si  0  0  0  0  0  4  0  0  0  0  0  0
    4.5726   -2.8937  -10.0520 H   0  0  0  0  0  0  0  0  0  0  0  0
    3.4614   -1.6897  -11.7552 H   0  0  0  0  0  0  0  0  0  0  0  0
    6.3727   -0.9203  -11.4553 Si  0  0  0  0  0  4  0  0  0  0  0  0
    7.3892   -0.8104  -10.4046 H   0  0  0  0  0  0  0  0  0  0  0  0
    6.2727    0.2816  -12.2815 H   0  0  0  0  0  0  0  0  0  0  0  0
    6.8184   -2.0152  -12.3544 H   0  0  0  0  0  0  0  0  0  0  0  0
   -1.4484   -1.1077   -9.5796 Si  0  0  0  0  0  4  0  0  0  0  0  0
   -2.0145   -0.8841  -10.9264 H   0  0  0  0  0  0  0  0  0  0  0  0
   -0.1287   -1.7144   -9.7279 H   0  0  0  0  0  0  0  0  0  0  0  0
   -1.3097    0.1704   -8.8617 H   0  0  0  0  0  0  0  0  0  0  0  0
  1  2  1  0
  1  5  1  0
  2  3  1  0
  2  4  1  0
  2  8  1  0
  5  6  1  0
  5  7  1  0
  5 11  1  0
  8  9  1  0
  8 10  1  0
  8 17  1  0
 11 12  1  0
 11 13  1  0
 11 14  1  0
 14 15  1  0
 14 16  1  0
 14 23  1  0
 17 18  1  0
 17 19  1  0
 17 20  1  0
 20 21  1  0
 20 22  1  0
 20 26  1  0
 23 24  1  0
 23 25  1  0
 23 29  1  0
 26 27  1  0
 26 28  1  0
 26 36  1  0
 29 30  1  0
 29 31  1  0
 29 32  1  0
 32 33  1  0
 32 34  1  0
 32 35  1  0
 36 37  1  0
 36 38  1  0
 36 39  1  0
M  CHG  1   1   1
M  RAD  1   1   2
M  END
$$$$

     RDKit          3D

 39 38  0  0  0  0  0  0  0  0999 V2000
    0.0244   -0.0140   -3.1936 S   0  0  0  0  0  2  0  0  0  0  0  0
    1.9872   -0.6986   -3.8079 Si  0  0  0  0  0  4  0  0  0  0  0  0
    2.2133   -2.0502   -3.2834 H   0  0  0  0  0  0  0  0  0  0  0  0
    3.0354    0.1636   -3.2463 H   0  0  0  0  0  0  0  0  0  0  0  0
   -1.3333   -0.3559   -4.8353 Si  0  0  0  0  0  4  0  0  0  0  0  0
   -0.7126   -1.3000   -5.8085 H   0  0  0  0  0  0  0  0  0  0  0  0
   -2.5474   -1.0278   -4.3470 H   0  0  0  0  0  0  0  0  0  0  0  0
    2.0498   -0.6890   -6.0477 Si  0  0  0  0  0  4  0  0  0  0  0  0
    0.7998   -0.0976   -6.6049 H   0  0  0  0  0  0  0  0  0  0  0  0
    3.1900    0.0550   -6.5585 H   0  0  0  0  0  0  0  0  0  0  0  0
   -1.7852    1.5171   -5.9269 Si  0  0  0  0  0  4  0  0  0  0  0  0
   -3.2671    1.6214   -6.0407 H   0  0  0  0  0  0  0  0  0  0  0  0
   -1.2714    1.5188   -7.2995 H   0  0  0  0  0  0  0  0  0  0  0  0
   -1.0610    3.3230   -4.8815 Si  0  0  0  0  0  4  0  0  0  0  0  0
   -1.7516    4.5034   -5.4555 H   0  0  0  0  0  0  0  0  0  0  0  0
   -1.3998    3.2830   -3.4566 H   0  0  0  0  0  0  0  0  0  0  0  0
    2.0716   -2.8277   -6.7388 Si  0  0  0  0  0  4  0  0  0  0  0  0
    1.1715   -3.5762   -5.8492 H   0  0  0  0  0  0  0  0  0  0  0  0
    3.4171   -3.3949   -6.6397 H   0  0  0  0  0  0  0  0  0  0  0  0
    1.3038   -2.9451   -8.8406 Si  0  0  0  0  0  4  0  0  0  0  0  0
    2.4279   -2.8395   -9.7689 H   0  0  0  0  0  0  0  0  0  0  0  0
    0.6665   -4.2576   -9.0221 H   0  0  0  0  0  0  0  0  0  0  0  0
    1.1188    3.6403   -5.1100 Si  0  0  0  0  0  4  0  0  0  0  0  0
    1.8953    2.4313   -4.8491 H   0  0  0  0  0  0  0  0  0  0  0  0
    1.5347    4.6515   -4.1070 H   0  0  0  0  0  0  0  0  0  0  0  0
   -0.1337   -1.2802   -9.2586 Si  0  0  0  0  0  4  0  0  0  0  0  0
   -1.0881   -1.1055   -8.1714 H   0  0  0  0  0  0  0  0  0  0  0  0
   -0.8789   -1.6565  -10.4773 H   0  0  0  0  0  0  0  0  0  0  0  0
    1.6671    4.4135   -7.1123 Si  0  0  0  0  0  4  0  0  0  0  0  0
    1.7777    5.8860   -7.0907 H   0  0  0  0  0  0  0  0  0  0  0  0
    0.6859    4.0421   -8.1314 H   0  0  0  0  0  0  0  0  0  0  0  0
    3.6690    3.6166   -7.7553 Si  0  0  0  0  0  4  0  0  0  0  0  0
    4.1207    4.3646   -8.9357 H   0  0  0  0  0  0  0  0  0  0  0  0
    4.6492    3.8218   -6.6847 H   0  0  0  0  0  0  0  0  0  0  0  0
    3.5704    2.1881   -8.0635 H   0  0  0  0  0  0  0  0  0  0  0  0
    0.9941    0.5960   -9.6851 Si  0  0  0  0  0  4  0  0  0  0  0  0
    2.2999    0.2740  -10.2809 H   0  0  0  0  0  0  0  0  0  0  0  0
    0.2268    1.4942  -10.5713 H   0  0  0  0  0  0  0  0  0  0  0  0
    1.2586    1.3659   -8.4508 H   0  0  0  0  0  0  0  0  0  0  0  0
  1  2  1  0
  1  5  1  0
  2  3  1  0
  2  4  1  0
  2  8  1  0
  5  6  1  0
  5  7  1  0
  5 11  1  0
  8  9  1  0
  8 10  1  0
  8 17  1  0
 11 12  1  0
 11 13  1  0
 11 14  1  0
 14 15  1  0
 14 16  1  0
 14 23  1  0
 17 18  1  0
 17 19  1  0
 17 20  1  0
 20 21  1  0
 20 22  1  0
 20 26  1  0
 23 24  1  0
 23 25  1  0
 23 29  1  0
 26 27  1  0
 26 28  1  0
 26 36  1  0
 29 30  1  0
 29 31  1  0
 29 32  1  0
 32 33  1  0
 32 34  1  0
 32 35  1  0
 36 37  1  0
 36 38  1  0
 36 39  1  0
M  CHG  1   1   1
M  RAD  1   1   2
M  END
$$$$

     RDKit          3D

 39 38  0  0  0  0  0  0  0  0999 V2000
    0.0244   -0.0140   -3.1936 S   0  0  0  0  0  2  0  0  0  0  0  0
    0.0516    2.0787   -3.4611 Si  0  0  0  0  0  4  0  0  0  0  0  0
   -1.1203    2.4677   -4.2767 H   0  0  0  0  0  0  0  0  0  0  0  0
   -0.1069    2.7299   -2.1470 H   0  0  0  0  0  0  0  0  0  0  0  0
    1.6532   -1.0153   -4.1209 Si  0  0  0  0  0  4  0  0  0  0  0  0
    2.5755   -1.4850   -3.0463 H   0  0  0  0  0  0  0  0  0  0  0  0
    2.4397   -0.1640   -4.9994 H   0  0  0  0  0  0  0  0  0  0  0  0
    1.9116    2.8300   -4.3928 Si  0  0  0  0  0  4  0  0  0  0  0  0
    3.0737    2.3729   -3.6226 H   0  0  0  0  0  0  0  0  0  0  0  0
    1.8877    4.3145   -4.3169 H   0  0  0  0  0  0  0  0  0  0  0  0
    0.8775   -2.8343   -5.1437 Si  0  0  0  0  0  4  0  0  0  0  0  0
    1.8927   -3.3710   -6.0732 H   0  0  0  0  0  0  0  0  0  0  0  0
    0.7007   -3.8782   -4.0983 H   0  0  0  0  0  0  0  0  0  0  0  0
   -1.0649   -2.4955   -6.1280 Si  0  0  0  0  0  4  0  0  0  0  0  0
   -2.1056   -3.4419   -5.6360 H   0  0  0  0  0  0  0  0  0  0  0  0
   -0.8792   -2.6971   -7.5931 H   0  0  0  0  0  0  0  0  0  0  0  0
    2.1085    2.2623   -6.5176 Si  0  0  0  0  0  4  0  0  0  0  0  0
    1.4636    1.0048   -6.8545 H   0  0  0  0  0  0  0  0  0  0  0  0
    3.5492    2.1127   -6.8264 H   0  0  0  0  0  0  0  0  0  0  0  0
    1.3179    3.8560   -7.8858 Si  0  0  0  0  0  4  0  0  0  0  0  0
    2.0427    5.1071   -7.7038 H   0  0  0  0  0  0  0  0  0  0  0  0
   -0.1257    4.0535   -7.6956 H   0  0  0  0  0  0  0  0  0  0  0  0
   -1.8444   -0.4426   -5.8354 Si  0  0  0  0  0  4  0  0  0  0  0  0
   -0.8014    0.5083   -6.2353 H   0  0  0  0  0  0  0  0  0  0  0  0
   -2.2226   -0.1646   -4.4612 H   0  0  0  0  0  0  0  0  0  0  0  0
    1.5800    3.0862   -9.9887 Si  0  0  0  0  0  4  0  0  0  0  0  0
    2.9543    3.4452  -10.3934 H   0  0  0  0  0  0  0  0  0  0  0  0
    0.6261    3.6887  -10.9000 H   0  0  0  0  0  0  0  0  0  0  0  0
   -3.5748   -0.1189   -7.2440 Si  0  0  0  0  0  4  0  0  0  0  0  0
   -4.7667   -0.8116   -6.7925 H   0  0  0  0  0  0  0  0  0  0  0  0
   -3.8484    1.3352   -7.2385 H   0  0  0  0  0  0  0  0  0  0  0  0
   -2.9602   -0.6905   -9.3005 Si  0  0  0  0  0  4  0  0  0  0  0  0
   -2.1791    0.4314   -9.8656 H   0  0  0  0  0  0  0  0  0  0  0  0
   -4.1396   -0.8868  -10.1619 H   0  0  0  0  0  0  0  0  0  0  0  0
   -2.0902   -1.8621   -9.2649 H   0  0  0  0  0  0  0  0  0  0  0  0
    1.3563    0.8540   -9.8883 Si  0  0  0  0  0  4  0  0  0  0  0  0
    0.3847    0.5446   -8.8146 H   0  0  0  0  0  0  0  0  0  0  0  0
    2.6730    0.3214   -9.4744 H   0  0  0  0  0  0  0  0  0  0  0  0
    0.9056    0.3030  -11.1590 H   0  0  0  0  0  0  0  0  0  0  0  0
  1  2  1  0
  1  5  1  0
  2  3  1  0
  2  4  1  0
  2  8  1  0
  5  6  1  0
  5  7  1  0
  5 11  1  0
  8  9  1  0
  8 10  1  0
  8 17  1  0
 11 12  1  0
 11 13  1  0
 11 14  1  0
 14 15  1  0
 14 16  1  0
 14 23  1  0
 17 18  1  0
 17 19  1  0
 17 20  1  0
 20 21  1  0
 20 22  1  0
 20 26  1  0
 23 24  1  0
 23 25  1  0
 23 29  1  0
 26 27  1  0
 26 28  1  0
 26 36  1  0
 29 30  1  0
 29 31  1  0
 29 32  1  0
 32 33  1  0
 32 34  1  0
 32 35  1  0
 36 37  1  0
 36 38  1  0
 36 39  1  0
M  CHG  1   1   1
M  RAD  1   1   2
M  END
$$$$

     RDKit          3D

 39 38  0  0  0  0  0  0  0  0999 V2000
    0.0244   -0.0140   -3.1936 S   0  0  0  0  0  2  0  0  0  0  0  0
    0.0772   -2.1800   -3.2592 Si  0  0  0  0  0  4  0  0  0  0  0  0
    1.4604   -2.5937   -3.5934 H   0  0  0  0  0  0  0  0  0  0  0  0
   -0.3621   -2.7568   -1.9948 H   0  0  0  0  0  0  0  0  0  0  0  0
    0.7152    0.6651   -5.1297 Si  0  0  0  0  0  4  0  0  0  0  0  0
    0.6560    2.1198   -5.1586 H   0  0  0  0  0  0  0  0  0  0  0  0
   -0.2103    0.0767   -6.1268 H   0  0  0  0  0  0  0  0  0  0  0  0
   -1.2746   -2.8168   -4.9117 Si  0  0  0  0  0  4  0  0  0  0  0  0
   -1.6871   -1.6769   -5.7544 H   0  0  0  0  0  0  0  0  0  0  0  0
   -2.4537   -3.4771   -4.3404 H   0  0  0  0  0  0  0  0  0  0  0  0
    2.7935   -0.0765   -5.5169 Si  0  0  0  0  0  4  0  0  0  0  0  0
    3.1297   -1.0453   -4.4357 H   0  0  0  0  0  0  0  0  0  0  0  0
    3.7366    1.0330   -5.4385 H   0  0  0  0  0  0  0  0  0  0  0  0
    2.8446   -1.1580   -7.4372 Si  0  0  0  0  0  4  0  0  0  0  0  0
    1.5210   -1.6786   -7.8098 H   0  0  0  0  0  0  0  0  0  0  0  0
    3.7358   -2.3458   -7.3136 H   0  0  0  0  0  0  0  0  0  0  0  0
   -0.2619   -4.2865   -6.2678 Si  0  0  0  0  0  4  0  0  0  0  0  0
    1.0497   -3.8250   -6.6908 H   0  0  0  0  0  0  0  0  0  0  0  0
   -0.1362   -5.5742   -5.5486 H   0  0  0  0  0  0  0  0  0  0  0  0
   -1.5708   -4.5197   -8.0818 Si  0  0  0  0  0  4  0  0  0  0  0  0
   -2.5790   -5.5660   -7.8108 H   0  0  0  0  0  0  0  0  0  0  0  0
   -0.7700   -4.8267   -9.2606 H   0  0  0  0  0  0  0  0  0  0  0  0
    3.6537    0.0842   -9.1002 Si  0  0  0  0  0  4  0  0  0  0  0  0
    2.4955    0.8024   -9.7044 H   0  0  0  0  0  0  0  0  0  0  0  0
    4.6289    1.0626   -8.6523 H   0  0  0  0  0  0  0  0  0  0  0  0
   -2.6829   -2.6107   -8.4501 Si  0  0  0  0  0  4  0  0  0  0  0  0
   -3.9022   -2.9158   -9.2204 H   0  0  0  0  0  0  0  0  0  0  0  0
   -3.1238   -1.9933   -7.1903 H   0  0  0  0  0  0  0  0  0  0  0  0
    4.4610   -1.3032  -10.6424 Si  0  0  0  0  0  4  0  0  0  0  0  0
    4.7173   -2.6486  -10.0530 H   0  0  0  0  0  0  0  0  0  0  0  0
    3.5435   -1.5052  -11.7559 H   0  0  0  0  0  0  0  0  0  0  0  0
    6.4099   -0.5825  -11.4567 Si  0  0  0  0  0  4  0  0  0  0  0  0
    7.4194   -0.4188  -10.4063 H   0  0  0  0  0  0  0  0  0  0  0  0
    6.2462    0.6125  -12.2829 H   0  0  0  0  0  0  0  0  0  0  0  0
    6.9129   -1.6522  -12.3559 H   0  0  0  0  0  0  0  0  0  0  0  0
   -1.3897   -1.1843   -9.5793 Si  0  0  0  0  0  4  0  0  0  0  0  0
   -1.9672   -0.9910  -10.9259 H   0  0  0  0  0  0  0  0  0  0  0  0
   -0.0398   -1.7201   -9.7279 H   0  0  0  0  0  0  0  0  0  0  0  0
   -1.3188    0.0994   -8.8614 H   0  0  0  0  0  0  0  0  0  0  0  0
  1  2  1  0
  1  5  1  0
  2  3  1  0
  2  4  1  0
  2  8  1  0
  5  6  1  0
  5  7  1  0
  5 11  1  0
  8  9  1  0
  8 10  1  0
  8 17  1  0
 11 12  1  0
 11 13  1  0
 11 14  1  0
 14 15  1  0
 14 16  1  0
 14 23  1  0
 17 18  1  0
 17 19  1  0
 17 20  1  0
 20 21  1  0
 20 22  1  0
 20 26  1  0
 23 24  1  0
 23 25  1  0
 23 29  1  0
 26 27  1  0
 26 28  1  0
 26 36  1  0
 29 30  1  0
 29 31  1  0
 29 32  1  0
 32 33  1  0
 32 34  1  0
 32 35  1  0
 36 37  1  0
 36 38  1  0
 36 39  1  0
M  CHG  1   1   1
M  RAD  1   1   2
M  END
$$$$

     RDKit          3D

 39 38  0  0  0  0  0  0  0  0999 V2000
    0.0244   -0.0140   -3.1936 S   0  0  0  0  0  2  0  0  0  0  0  0
    2.0206   -0.5936   -3.8084 Si  0  0  0  0  0  4  0  0  0  0  0  0
    2.3182   -1.9312   -3.2839 H   0  0  0  0  0  0  0  0  0  0  0  0
    3.0218    0.3230   -3.2470 H   0  0  0  0  0  0  0  0  0  0  0  0
   -1.3136   -0.4274   -4.8350 Si  0  0  0  0  0  4  0  0  0  0  0  0
   -0.6439   -1.3373   -5.8084 H   0  0  0  0  0  0  0  0  0  0  0  0
   -2.4903   -1.1628   -4.3464 H   0  0  0  0  0  0  0  0  0  0  0  0
    2.0821   -0.5807   -6.0482 Si  0  0  0  0  0  4  0  0  0  0  0  0
    0.8023   -0.0564   -6.6051 H   0  0  0  0  0  0  0  0  0  0  0  0
    3.1812    0.2227   -6.5592 H   0  0  0  0  0  0  0  0  0  0  0  0
   -1.8644    1.4190   -5.9264 Si  0  0  0  0  0  4  0  0  0  0  0  0
   -3.3498    1.4446   -6.0400 H   0  0  0  0  0  0  0  0  0  0  0  0
   -1.3517    1.4479   -7.2992 H   0  0  0  0  0  0  0  0  0  0  0  0
   -1.2368    3.2607   -4.8813 Si  0  0  0  0  0  4  0  0  0  0  0  0
   -1.9892    4.4029   -5.4551 H   0  0  0  0  0  0  0  0  0  0  0  0
   -1.5727    3.2028   -3.4563 H   0  0  0  0  0  0  0  0  0  0  0  0
    2.2171   -2.7152   -6.7393 Si  0  0  0  0  0  4  0  0  0  0  0  0
    1.3582   -3.5103   -5.8495 H   0  0  0  0  0  0  0  0  0  0  0  0
    3.5909   -3.2102   -6.6405 H   0  0  0  0  0  0  0  0  0  0  0  0
    1.4561   -2.8732   -8.8410 Si  0  0  0  0  0  4  0  0  0  0  0  0
    2.5728   -2.7081   -9.7695 H   0  0  0  0  0  0  0  0  0  0  0  0
    0.8893   -4.2176   -9.0223 H   0  0  0  0  0  0  0  0  0  0  0  0
    0.9230    3.6932   -5.1102 Si  0  0  0  0  0  4  0  0  0  0  0  0
    1.7627    2.5271   -4.8495 H   0  0  0  0  0  0  0  0  0  0  0  0
    1.2850    4.7251   -4.1073 H   0  0  0  0  0  0  0  0  0  0  0  0
   -0.0677   -1.2868   -9.2586 Si  0  0  0  0  0  4  0  0  0  0  0  0
   -1.0298   -1.1630   -8.1711 H   0  0  0  0  0  0  0  0  0  0  0  0
   -0.7922   -1.7021  -10.4771 H   0  0  0  0  0  0  0  0  0  0  0  0
    1.4291    4.4944   -7.1126 Si  0  0  0  0  0  4  0  0  0  0  0  0
    1.4615    5.9707   -7.0911 H   0  0  0  0  0  0  0  0  0  0  0  0
    0.4688    4.0714   -8.1315 H   0  0  0  0  0  0  0  0  0  0  0  0
    3.4703    3.8047   -7.7561 Si  0  0  0  0  0  4  0  0  0  0  0  0
    3.8815    4.5756   -8.9366 H   0  0  0  0  0  0  0  0  0  0  0  0
    4.4385    4.0616   -6.6857 H   0  0  0  0  0  0  0  0  0  0  0  0
    3.4475    2.3730   -8.0643 H   0  0  0  0  0  0  0  0  0  0  0  0
    0.9589    0.6466   -9.6853 Si  0  0  0  0  0  4  0  0  0  0  0  0
    2.2799    0.3943  -10.2814 H   0  0  0  0  0  0  0  0  0  0  0  0
    0.1449    1.5028  -10.5714 H   0  0  0  0  0  0  0  0  0  0  0  0
    1.1825    1.4294   -8.4510 H   0  0  0  0  0  0  0  0  0  0  0  0
  1  2  1  0
  1  5  1  0
  2  3  1  0
  2  4  1  0
  2  8  1  0
  5  6  1  0
  5  7  1  0
  5 11  1  0
  8  9  1  0
  8 10  1  0
  8 17  1  0
 11 12  1  0
 11 13  1  0
 11 14  1  0
 14 15  1  0
 14 16  1  0
 14 23  1  0
 17 18  1  0
 17 19  1  0
 17 20  1  0
 20 21  1  0
 20 22  1  0
 20 26  1  0
 23 24  1  0
 23 25  1  0
 23 29  1  0
 26 27  1  0
 26 28  1  0
 26 36  1  0
 29 30  1  0
 29 31  1  0
 29 32  1  0
 32 33  1  0
 32 34  1  0
 32 35  1  0
 36 37  1  0
 36 38  1  0
 36 39  1  0
M  CHG  1   1   1
M  RAD  1   1   2
M  END
$$$$
