
     RDKit          3D

 39 38  0  0  0  0  0  0  0  0999 V2000
    0.1019   -0.0057   -3.2026 S   0  0  0  0  0  2  0  0  0  0  0  0
    0.0138   -1.3417   -4.8452 Si  0  0  0  0  0  4  0  0  0  0  0  0
    1.0390   -2.4029   -4.6281 H   0  0  0  0  0  0  0  0  0  0  0  0
    0.3468   -0.6664   -6.0906 H   0  0  0  0  0  0  0  0  0  0  0  0
   -0.7455    1.8933   -3.6326 Si  0  0  0  0  0  4  0  0  0  0  0  0
   -0.0706    2.8951   -2.7599 H   0  0  0  0  0  0  0  0  0  0  0  0
   -2.1645    1.9489   -3.3071 H   0  0  0  0  0  0  0  0  0  0  0  0
   -1.9546   -2.3734   -5.0049 Si  0  0  0  0  0  4  0  0  0  0  0  0
   -2.4542   -2.7025   -3.6537 H   0  0  0  0  0  0  0  0  0  0  0  0
   -2.9658   -1.5665   -5.6604 H   0  0  0  0  0  0  0  0  0  0  0  0
   -0.4254    2.5237   -5.7345 Si  0  0  0  0  0  4  0  0  0  0  0  0
   -0.7773    3.9708   -5.8228 H   0  0  0  0  0  0  0  0  0  0  0  0
    0.9923    2.4241   -6.1040 H   0  0  0  0  0  0  0  0  0  0  0  0
   -1.7449    1.4388   -7.1539 Si  0  0  0  0  0  4  0  0  0  0  0  0
   -2.7515    0.7131   -6.3799 H   0  0  0  0  0  0  0  0  0  0  0  0
   -0.9092    0.5603   -7.9747 H   0  0  0  0  0  0  0  0  0  0  0  0
   -1.6651   -4.2378   -6.1885 Si  0  0  0  0  0  4  0  0  0  0  0  0
   -1.9402   -5.4057   -5.3685 H   0  0  0  0  0  0  0  0  0  0  0  0
   -0.2722   -4.3637   -6.6765 H   0  0  0  0  0  0  0  0  0  0  0  0
   -2.9853   -4.2643   -7.9963 Si  0  0  0  0  0  4  0  0  0  0  0  0
   -4.3928   -4.0931   -7.6468 H   0  0  0  0  0  0  0  0  0  0  0  0
   -2.8197   -5.6019   -8.6197 H   0  0  0  0  0  0  0  0  0  0  0  0
   -2.8569    2.8708   -8.4866 Si  0  0  0  0  0  4  0  0  0  0  0  0
   -2.8942    4.1897   -7.8326 H   0  0  0  0  0  0  0  0  0  0  0  0
   -4.2272    2.3721   -8.7531 H   0  0  0  0  0  0  0  0  0  0  0  0
   -2.3223   -2.7310   -9.4822 Si  0  0  0  0  0  4  0  0  0  0  0  0
   -2.0872   -3.3481  -10.7956 H   0  0  0  0  0  0  0  0  0  0  0  0
   -1.0837   -2.0642   -9.0592 H   0  0  0  0  0  0  0  0  0  0  0  0
   -1.8079    3.0062  -10.4409 Si  0  0  0  0  0  4  0  0  0  0  0  0
   -1.9119    1.6910  -11.1115 H   0  0  0  0  0  0  0  0  0  0  0  0
   -2.3892    4.0552  -11.2740 H   0  0  0  0  0  0  0  0  0  0  0  0
    0.3300    3.4985  -10.0590 Si  0  0  0  0  0  4  0  0  0  0  0  0
    1.1398    2.2693  -10.1112 H   0  0  0  0  0  0  0  0  0  0  0  0
    0.8032    4.4052  -11.1093 H   0  0  0  0  0  0  0  0  0  0  0  0
    0.4643    4.0874   -8.7154 H   0  0  0  0  0  0  0  0  0  0  0  0
   -3.9790   -1.2527   -9.7272 Si  0  0  0  0  0  4  0  0  0  0  0  0
   -3.4344    0.0346  -10.1861 H   0  0  0  0  0  0  0  0  0  0  0  0
   -4.9780   -1.7909  -10.6741 H   0  0  0  0  0  0  0  0  0  0  0  0
   -4.6755   -1.0060   -8.4484 H   0  0  0  0  0  0  0  0  0  0  0  0
  1  2  1  0
  1  5  1  0
  2  3  1  0
  2  4  1  0
  2  8  1  0
  5  6  1  0
  5  7  1  0
  5 11  1  0
  8  9  1  0
  8 10  1  0
  8 17  1  0
 11 12  1  0
 11 13  1  0
 11 14  1  0
 14 15  1  0
 14 16  1  0
 14 23  1  0
 17 18  1  0
 17 19  1  0
 17 20  1  0
 20 21  1  0
 20 22  1  0
 20 26  1  0
 23 24  1  0
 23 25  1  0
 23 29  1  0
 26 27  1  0
 26 28  1  0
 26 36  1  0
 29 30  1  0
 29 31  1  0
 29 32  1  0
 32 33  1  0
 32 34  1  0
 32 35  1  0
 36 37  1  0
 36 38  1  0
 36 39  1  0
M  CHG  1   1   1
M  RAD  1   1   2
M  END
$$$$

     RDKit          3D

 39 38  0  0  0  0  0  0  0  0999 V2000
    0.1019   -0.0057   -3.2026 S   0  0  0  0  0  2  0  0  0  0  0  0
    0.0253   -1.3428   -4.8448 Si  0  0  0  0  0  4  0  0  0  0  0  0
    1.0599   -2.3949   -4.6277 H   0  0  0  0  0  0  0  0  0  0  0  0
    0.3521   -0.6649   -6.0905 H   0  0  0  0  0  0  0  0  0  0  0  0
   -0.7622    1.8857   -3.6329 Si  0  0  0  0  0  4  0  0  0  0  0  0
   -0.0961    2.8936   -2.7607 H   0  0  0  0  0  0  0  0  0  0  0  0
   -2.1816    1.9288   -3.3073 H   0  0  0  0  0  0  0  0  0  0  0  0
   -1.9339   -2.3919   -5.0039 Si  0  0  0  0  0  4  0  0  0  0  0  0
   -2.4304   -2.7250   -3.6526 H   0  0  0  0  0  0  0  0  0  0  0  0
   -2.9523   -1.5941   -5.6594 H   0  0  0  0  0  0  0  0  0  0  0  0
   -0.4481    2.5183   -5.7351 Si  0  0  0  0  0  4  0  0  0  0  0  0
   -0.8127    3.9622   -5.8237 H   0  0  0  0  0  0  0  0  0  0  0  0
    0.9704    2.4311   -6.1048 H   0  0  0  0  0  0  0  0  0  0  0  0
   -1.7582    1.4214   -7.1539 Si  0  0  0  0  0  4  0  0  0  0  0  0
   -2.7583    0.6871   -6.3796 H   0  0  0  0  0  0  0  0  0  0  0  0
   -0.9150    0.5501   -7.9746 H   0  0  0  0  0  0  0  0  0  0  0  0
   -1.6282   -4.2540   -6.1871 Si  0  0  0  0  0  4  0  0  0  0  0  0
   -1.8929   -5.4240   -5.3668 H   0  0  0  0  0  0  0  0  0  0  0  0
   -0.2344   -4.3678   -6.6753 H   0  0  0  0  0  0  0  0  0  0  0  0
   -2.9484   -4.2926   -7.9947 Si  0  0  0  0  0  4  0  0  0  0  0  0
   -4.3573   -4.1337   -7.6450 H   0  0  0  0  0  0  0  0  0  0  0  0
   -2.7712   -5.6288   -8.6178 H   0  0  0  0  0  0  0  0  0  0  0  0
   -2.8831    2.8432   -8.4868 Si  0  0  0  0  0  4  0  0  0  0  0  0
   -2.9318    4.1620   -7.8332 H   0  0  0  0  0  0  0  0  0  0  0  0
   -4.2489    2.3324   -8.7530 H   0  0  0  0  0  0  0  0  0  0  0  0
   -2.2992   -2.7539   -9.4811 Si  0  0  0  0  0  4  0  0  0  0  0  0
   -2.0590   -3.3693  -10.7944 H   0  0  0  0  0  0  0  0  0  0  0  0
   -1.0666   -2.0761   -9.0585 H   0  0  0  0  0  0  0  0  0  0  0  0
   -1.8356    2.9874  -10.4414 Si  0  0  0  0  0  4  0  0  0  0  0  0
   -1.9281    1.6712  -11.1115 H   0  0  0  0  0  0  0  0  0  0  0  0
   -2.4263    4.0310  -11.2746 H   0  0  0  0  0  0  0  0  0  0  0  0
    0.2979    3.4986  -10.0599 Si  0  0  0  0  0  4  0  0  0  0  0  0
    1.1185    2.2765  -10.1120 H   0  0  0  0  0  0  0  0  0  0  0  0
    0.7629    4.4091  -11.1105 H   0  0  0  0  0  0  0  0  0  0  0  0
    0.4273    4.0890   -8.7166 H   0  0  0  0  0  0  0  0  0  0  0  0
   -3.9690   -1.2903   -9.7262 Si  0  0  0  0  0  4  0  0  0  0  0  0
   -3.4358    0.0016  -10.1855 H   0  0  0  0  0  0  0  0  0  0  0  0
   -4.9634   -1.8375  -10.6727 H   0  0  0  0  0  0  0  0  0  0  0  0
   -4.6674   -1.0495   -8.4473 H   0  0  0  0  0  0  0  0  0  0  0  0
  1  2  1  0
  1  5  1  0
  2  3  1  0
  2  4  1  0
  2  8  1  0
  5  6  1  0
  5  7  1  0
  5 11  1  0
  8  9  1  0
  8 10  1  0
  8 17  1  0
 11 12  1  0
 11 13  1  0
 11 14  1  0
 14 15  1  0
 14 16  1  0
 14 23  1  0
 17 18  1  0
 17 19  1  0
 17 20  1  0
 20 21  1  0
 20 22  1  0
 20 26  1  0
 23 24  1  0
 23 25  1  0
 23 29  1  0
 26 27  1  0
 26 28  1  0
 26 36  1  0
 29 30  1  0
 29 31  1  0
 29 32  1  0
 32 33  1  0
 32 34  1  0
 32 35  1  0
 36 37  1  0
 36 38  1  0
 36 39  1  0
M  CHG  1   1   1
M  RAD  1   1   2
M  END
$$$$

     RDKit          3D

 39 38  0  0  0  0  0  0  0  0999 V2000
    0.1019   -0.0057   -3.2026 S   0  0  0  0  0  2  0  0  0  0  0  0
    0.0084    2.1153   -3.4489 Si  0  0  0  0  0  4  0  0  0  0  0  0
   -1.2928    2.6666   -3.0287 H   0  0  0  0  0  0  0  0  0  0  0  0
    1.0167    2.7086   -2.5357 H   0  0  0  0  0  0  0  0  0  0  0  0
   -0.4973   -1.0249   -5.0105 Si  0  0  0  0  0  4  0  0  0  0  0  0
   -1.8646   -1.5520   -4.8924 H   0  0  0  0  0  0  0  0  0  0  0  0
   -0.4152   -0.0315   -6.0961 H   0  0  0  0  0  0  0  0  0  0  0  0
    0.4902    2.7469   -5.5175 Si  0  0  0  0  0  4  0  0  0  0  0  0
   -0.7870    3.1094   -6.1852 H   0  0  0  0  0  0  0  0  0  0  0  0
    1.1407    1.6915   -6.2988 H   0  0  0  0  0  0  0  0  0  0  0  0
    0.9439   -2.7163   -5.3638 Si  0  0  0  0  0  4  0  0  0  0  0  0
    0.6419   -3.7305   -4.3133 H   0  0  0  0  0  0  0  0  0  0  0  0
    0.7209   -3.3571   -6.6441 H   0  0  0  0  0  0  0  0  0  0  0  0
    2.9980   -1.9465   -5.1383 Si  0  0  0  0  0  4  0  0  0  0  0  0
    3.7399   -2.8717   -4.2342 H   0  0  0  0  0  0  0  0  0  0  0  0
    2.9775   -0.6436   -4.4151 H   0  0  0  0  0  0  0  0  0  0  0  0
    1.7490    4.5985   -5.4437 Si  0  0  0  0  0  4  0  0  0  0  0  0
    1.0251    5.7592   -5.9960 H   0  0  0  0  0  0  0  0  0  0  0  0
    2.1481    4.9221   -4.0762 H   0  0  0  0  0  0  0  0  0  0  0  0
    3.5857    4.3208   -6.6884 Si  0  0  0  0  0  4  0  0  0  0  0  0
    4.1644    3.0174   -6.3347 H   0  0  0  0  0  0  0  0  0  0  0  0
    4.5523    5.3760   -6.4247 H   0  0  0  0  0  0  0  0  0  0  0  0
    4.0533   -1.6626   -7.0450 Si  0  0  0  0  0  4  0  0  0  0  0  0
    5.2797   -2.4826   -7.0386 H   0  0  0  0  0  0  0  0  0  0  0  0
    4.4936   -0.2645   -7.2413 H   0  0  0  0  0  0  0  0  0  0  0  0
    2.9535    4.3774   -8.8387 Si  0  0  0  0  0  4  0  0  0  0  0  0
    1.5772    4.9016   -8.9711 H   0  0  0  0  0  0  0  0  0  0  0  0
    3.9136    5.1885   -9.6065 H   0  0  0  0  0  0  0  0  0  0  0  0
    2.8466   -2.2706   -8.8100 Si  0  0  0  0  0  4  0  0  0  0  0  0
    3.6096   -1.8582  -10.0228 H   0  0  0  0  0  0  0  0  0  0  0  0
    2.6994   -3.7319   -8.9098 H   0  0  0  0  0  0  0  0  0  0  0  0
    0.8789   -1.2690   -8.8820 Si  0  0  0  0  0  4  0  0  0  0  0  0
    0.5726   -0.8314  -10.2737 H   0  0  0  0  0  0  0  0  0  0  0  0
   -0.2314   -2.1498   -8.4868 H   0  0  0  0  0  0  0  0  0  0  0  0
    0.9415   -0.0480   -8.0762 H   0  0  0  0  0  0  0  0  0  0  0  0
    2.9677    2.3020   -9.6163 Si  0  0  0  0  0  4  0  0  0  0  0  0
    4.0786    2.0598  -10.5409 H   0  0  0  0  0  0  0  0  0  0  0  0
    1.6832    1.9654  -10.2870 H   0  0  0  0  0  0  0  0  0  0  0  0
    3.0993    1.3171   -8.5106 H   0  0  0  0  0  0  0  0  0  0  0  0
  1  2  1  0
  1  5  1  0
  2  3  1  0
  2  4  1  0
  2  8  1  0
  5  6  1  0
  5  7  1  0
  5 11  1  0
  8  9  1  0
  8 10  1  0
  8 17  1  0
 11 12  1  0
 11 13  1  0
 11 14  1  0
 14 15  1  0
 14 16  1  0
 14 23  1  0
 17 18  1  0
 17 19  1  0
 17 20  1  0
 20 21  1  0
 20 22  1  0
 20 26  1  0
 23 24  1  0
 23 25  1  0
 23 29  1  0
 26 27  1  0
 26 28  1  0
 26 36  1  0
 29 30  1  0
 29 31  1  0
 29 32  1  0
 32 33  1  0
 32 34  1  0
 32 35  1  0
 36 37  1  0
 36 38  1  0
 36 39  1  0
M  CHG  1   1   1
M  RAD  1   1   2
M  END
$$$$

     RDKit          3D

 39 38  0  0  0  0  0  0  0  0999 V2000
    0.1019   -0.0057   -3.2026 S   0  0  0  0  0  2  0  0  0  0  0  0
    1.6680   -0.5140   -4.5267 Si  0  0  0  0  0  4  0  0  0  0  0  0
    2.8247    0.3844   -4.2880 H   0  0  0  0  0  0  0  0  0  0  0  0
    2.1749   -1.8863   -4.2668 H   0  0  0  0  0  0  0  0  0  0  0  0
   -1.8309   -0.4704   -3.9522 Si  0  0  0  0  0  4  0  0  0  0  0  0
   -2.0213    0.1307   -5.2603 H   0  0  0  0  0  0  0  0  0  0  0  0
   -2.8259    0.1637   -3.0404 H   0  0  0  0  0  0  0  0  0  0  0  0
    1.1110   -0.3536   -6.6590 Si  0  0  0  0  0  4  0  0  0  0  0  0
   -0.1763   -0.9764   -6.9656 H   0  0  0  0  0  0  0  0  0  0  0  0
    2.1320   -1.0968   -7.4509 H   0  0  0  0  0  0  0  0  0  0  0  0
   -2.2468   -2.6494   -3.9649 Si  0  0  0  0  0  4  0  0  0  0  0  0
   -1.0764   -3.4529   -4.3114 H   0  0  0  0  0  0  0  0  0  0  0  0
   -2.6905   -3.0332   -2.6081 H   0  0  0  0  0  0  0  0  0  0  0  0
   -3.9588   -3.0369   -5.3645 Si  0  0  0  0  0  4  0  0  0  0  0  0
   -5.1005   -3.6346   -4.6531 H   0  0  0  0  0  0  0  0  0  0  0  0
   -4.4433   -1.7748   -5.9645 H   0  0  0  0  0  0  0  0  0  0  0  0
    1.1763    1.7588   -7.3892 Si  0  0  0  0  0  4  0  0  0  0  0  0
    2.5578    2.2601   -7.2407 H   0  0  0  0  0  0  0  0  0  0  0  0
    0.2020    2.5975   -6.7103 H   0  0  0  0  0  0  0  0  0  0  0  0
    0.7132    1.7394   -9.5871 Si  0  0  0  0  0  4  0  0  0  0  0  0
    0.0965    2.9973  -10.0146 H   0  0  0  0  0  0  0  0  0  0  0  0
    1.9556    1.4827  -10.3360 H   0  0  0  0  0  0  0  0  0  0  0  0
   -3.2134   -4.3674   -6.9876 Si  0  0  0  0  0  4  0  0  0  0  0  0
   -2.6899   -5.6099   -6.3969 H   0  0  0  0  0  0  0  0  0  0  0  0
   -2.1152   -3.6810   -7.6659 H   0  0  0  0  0  0  0  0  0  0  0  0
   -0.7085    0.0451   -9.9774 Si  0  0  0  0  0  4  0  0  0  0  0  0
    0.0324   -1.2189   -9.7963 H   0  0  0  0  0  0  0  0  0  0  0  0
   -1.1917    0.1095  -11.3756 H   0  0  0  0  0  0  0  0  0  0  0  0
   -4.7847   -4.8349   -8.4778 Si  0  0  0  0  0  4  0  0  0  0  0  0
   -6.1106   -4.9892   -7.8635 H   0  0  0  0  0  0  0  0  0  0  0  0
   -4.4193   -6.1123   -9.1344 H   0  0  0  0  0  0  0  0  0  0  0  0
   -4.8943   -3.2893  -10.0888 Si  0  0  0  0  0  4  0  0  0  0  0  0
   -4.6998   -1.9888   -9.4752 H   0  0  0  0  0  0  0  0  0  0  0  0
   -6.2874   -3.3168  -10.6120 H   0  0  0  0  0  0  0  0  0  0  0  0
   -3.9122   -3.5323  -11.1362 H   0  0  0  0  0  0  0  0  0  0  0  0
   -2.3840    0.1673   -8.5396 Si  0  0  0  0  0  4  0  0  0  0  0  0
   -2.5484   -1.1576   -7.8758 H   0  0  0  0  0  0  0  0  0  0  0  0
   -3.6876    0.4163   -9.2184 H   0  0  0  0  0  0  0  0  0  0  0  0
   -2.1685    1.1384   -7.4742 H   0  0  0  0  0  0  0  0  0  0  0  0
  1  2  1  0
  1  5  1  0
  2  3  1  0
  2  4  1  0
  2  8  1  0
  5  6  1  0
  5  7  1  0
  5 11  1  0
  8  9  1  0
  8 10  1  0
  8 17  1  0
 11 12  1  0
 11 13  1  0
 11 14  1  0
 14 15  1  0
 14 16  1  0
 14 23  1  0
 17 18  1  0
 17 19  1  0
 17 20  1  0
 20 21  1  0
 20 22  1  0
 20 26  1  0
 23 24  1  0
 23 25  1  0
 23 29  1  0
 26 27  1  0
 26 28  1  0
 26 36  1  0
 29 30  1  0
 29 31  1  0
 29 32  1  0
 32 33  1  0
 32 34  1  0
 32 35  1  0
 36 37  1  0
 36 38  1  0
 36 39  1  0
M  CHG  1   1   1
M  RAD  1   1   2
M  END
$$$$
