
     RDKit          3D

 39 38  0  0  0  0  0  0  0  0999 V2000
    0.0272    0.6695    1.7758 S   0  0  0  0  0  2  0  0  0  0  0  0
   -1.6427    1.9608    2.1276 Si  0  0  0  0  0  4  0  0  0  0  0  0
   -2.8072    1.3817    1.4531 H   0  0  0  0  0  0  0  0  0  0  0  0
   -1.3238    3.2685    1.5286 H   0  0  0  0  0  0  0  0  0  0  0  0
   -0.1484   -1.1597    2.8996 Si  0  0  0  0  0  4  0  0  0  0  0  0
    0.3451   -2.2424    2.0251 H   0  0  0  0  0  0  0  0  0  0  0  0
   -1.5441   -1.3898    3.2338 H   0  0  0  0  0  0  0  0  0  0  0  0
   -2.0065    2.2606    4.3096 Si  0  0  0  0  0  4  0  0  0  0  0  0
   -3.4341    2.1161    4.6159 H   0  0  0  0  0  0  0  0  0  0  0  0
   -1.2332    1.2346    5.0287 H   0  0  0  0  0  0  0  0  0  0  0  0
    1.1379   -1.0526    4.7448 Si  0  0  0  0  0  4  0  0  0  0  0  0
    1.8153   -2.3597    4.9243 H   0  0  0  0  0  0  0  0  0  0  0  0
    0.3363   -0.7408    5.9294 H   0  0  0  0  0  0  0  0  0  0  0  0
    2.6812    0.5112    4.3449 Si  0  0  0  0  0  4  0  0  0  0  0  0
    2.0180    1.6247    3.6363 H   0  0  0  0  0  0  0  0  0  0  0  0
    3.6670   -0.0497    3.3936 H   0  0  0  0  0  0  0  0  0  0  0  0
   -1.2955    4.3122    4.9168 Si  0  0  0  0  0  4  0  0  0  0  0  0
   -2.2778    5.2799    4.4196 H   0  0  0  0  0  0  0  0  0  0  0  0
   -1.1668    4.4220    6.3630 H   0  0  0  0  0  0  0  0  0  0  0  0
    0.6830    4.6305    3.9123 Si  0  0  0  0  0  4  0  0  0  0  0  0
    0.6443    3.9648    2.6151 H   0  0  0  0  0  0  0  0  0  0  0  0
    1.6969    3.9537    4.7508 H   0  0  0  0  0  0  0  0  0  0  0  0
    3.7024    1.1701    6.1888 Si  0  0  0  0  0  4  0  0  0  0  0  0
    4.8552    0.2709    6.4256 H   0  0  0  0  0  0  0  0  0  0  0  0
    4.2581    2.5287    5.9427 H   0  0  0  0  0  0  0  0  0  0  0  0
    1.1710    6.7783    3.7158 Si  0  0  0  0  0  4  0  0  0  0  0  0
    1.8020    6.9832    2.3882 H   0  0  0  0  0  0  0  0  0  0  0  0
   -0.0253    7.6122    3.7763 H   0  0  0  0  0  0  0  0  0  0  0  0
    2.3412    1.2574    7.9384 Si  0  0  0  0  0  4  0  0  0  0  0  0
    1.2440    0.2964    7.8437 H   0  0  0  0  0  0  0  0  0  0  0  0
    3.1291    0.8887    9.1389 H   0  0  0  0  0  0  0  0  0  0  0  0
    1.6210    3.3447    8.2405 Si  0  0  0  0  0  4  0  0  0  0  0  0
    2.0548    4.1866    7.1185 H   0  0  0  0  0  0  0  0  0  0  0  0
    2.1071    3.9162    9.5079 H   0  0  0  0  0  0  0  0  0  0  0  0
    0.1459    3.3318    8.2581 H   0  0  0  0  0  0  0  0  0  0  0  0
    2.6308    7.3414    5.3234 Si  0  0  0  0  0  4  0  0  0  0  0  0
    2.0030    8.3189    6.2276 H   0  0  0  0  0  0  0  0  0  0  0  0
    3.0687    6.1368    6.0653 H   0  0  0  0  0  0  0  0  0  0  0  0
    3.8348    7.9092    4.7022 H   0  0  0  0  0  0  0  0  0  0  0  0
  1  2  1  0
  1  5  1  0
  2  3  1  0
  2  4  1  0
  2  8  1  0
  5  6  1  0
  5  7  1  0
  5 11  1  0
  8  9  1  0
  8 10  1  0
  8 17  1  0
 11 12  1  0
 11 13  1  0
 11 14  1  0
 14 15  1  0
 14 16  1  0
 14 23  1  0
 17 18  1  0
 17 19  1  0
 17 20  1  0
 20 21  1  0
 20 22  1  0
 20 26  1  0
 23 24  1  0
 23 25  1  0
 23 29  1  0
 26 27  1  0
 26 28  1  0
 26 36  1  0
 29 30  1  0
 29 31  1  0
 29 32  1  0
 32 33  1  0
 32 34  1  0
 32 35  1  0
 36 37  1  0
 36 38  1  0
 36 39  1  0
M  CHG  1   1   1
M  RAD  1   1   2
M  END
$$$$

     RDKit          3D

 39 38  0  0  0  0  0  0  0  0999 V2000
    0.0272    0.6695    1.7758 S   0  0  0  0  0  2  0  0  0  0  0  0
    0.4464   -0.8706    3.2455 Si  0  0  0  0  0  4  0  0  0  0  0  0
    1.6006   -1.6860    2.8050 H   0  0  0  0  0  0  0  0  0  0  0  0
   -0.6922   -1.7918    3.3621 H   0  0  0  0  0  0  0  0  0  0  0  0
   -1.1492    2.1834    2.7758 Si  0  0  0  0  0  4  0  0  0  0  0  0
   -2.5330    2.0376    2.2390 H   0  0  0  0  0  0  0  0  0  0  0  0
   -1.2262    1.9513    4.2053 H   0  0  0  0  0  0  0  0  0  0  0  0
    0.8833    0.1694    5.1410 Si  0  0  0  0  0  4  0  0  0  0  0  0
   -0.3363    0.8071    5.6408 H   0  0  0  0  0  0  0  0  0  0  0  0
    1.8423    1.2668    4.8514 H   0  0  0  0  0  0  0  0  0  0  0  0
   -0.4455    4.2139    2.3248 Si  0  0  0  0  0  4  0  0  0  0  0  0
    0.1051    4.2496    0.9582 H   0  0  0  0  0  0  0  0  0  0  0  0
   -1.6054    5.1400    2.3446 H   0  0  0  0  0  0  0  0  0  0  0  0
    1.0886    4.9690    3.7181 Si  0  0  0  0  0  4  0  0  0  0  0  0
    1.2140    6.4377    3.4960 H   0  0  0  0  0  0  0  0  0  0  0  0
    2.4200    4.4079    3.4362 H   0  0  0  0  0  0  0  0  0  0  0  0
    1.7253   -1.1309    6.7002 Si  0  0  0  0  0  4  0  0  0  0  0  0
    0.6000   -1.6710    7.5161 H   0  0  0  0  0  0  0  0  0  0  0  0
    2.5141   -2.2396    6.2039 H   0  0  0  0  0  0  0  0  0  0  0  0
    2.9227    0.1650    8.1024 Si  0  0  0  0  0  4  0  0  0  0  0  0
    1.9291    0.9302    8.9066 H   0  0  0  0  0  0  0  0  0  0  0  0
    3.7567   -0.6331    8.9842 H   0  0  0  0  0  0  0  0  0  0  0  0
    0.6117    4.6352    5.8406 Si  0  0  0  0  0  4  0  0  0  0  0  0
    1.4933    5.5235    6.6504 H   0  0  0  0  0  0  0  0  0  0  0  0
    0.9111    3.2642    6.2880 H   0  0  0  0  0  0  0  0  0  0  0  0
    4.1419    1.6429    6.9656 Si  0  0  0  0  0  4  0  0  0  0  0  0
    5.4173    0.9630    6.6043 H   0  0  0  0  0  0  0  0  0  0  0  0
    3.5163    2.0522    5.7201 H   0  0  0  0  0  0  0  0  0  0  0  0
   -1.4828    5.1294    6.3497 Si  0  0  0  0  0  4  0  0  0  0  0  0
   -1.6032    6.5344    6.8349 H   0  0  0  0  0  0  0  0  0  0  0  0
   -2.3320    4.8798    5.2029 H   0  0  0  0  0  0  0  0  0  0  0  0
   -2.1358    3.7821    8.0268 Si  0  0  0  0  0  4  0  0  0  0  0  0
   -3.1216    2.7887    7.5408 H   0  0  0  0  0  0  0  0  0  0  0  0
   -2.6695    4.5651    9.1431 H   0  0  0  0  0  0  0  0  0  0  0  0
   -0.9972    3.0060    8.5512 H   0  0  0  0  0  0  0  0  0  0  0  0
    4.5448    3.4769    8.1755 Si  0  0  0  0  0  4  0  0  0  0  0  0
    5.9992    3.6009    8.3593 H   0  0  0  0  0  0  0  0  0  0  0  0
    4.1002    4.6979    7.4646 H   0  0  0  0  0  0  0  0  0  0  0  0
    3.8219    3.4207    9.4478 H   0  0  0  0  0  0  0  0  0  0  0  0
  1  2  1  0
  1  5  1  0
  2  3  1  0
  2  4  1  0
  2  8  1  0
  5  6  1  0
  5  7  1  0
  5 11  1  0
  8  9  1  0
  8 10  1  0
  8 17  1  0
 11 12  1  0
 11 13  1  0
 11 14  1  0
 14 15  1  0
 14 16  1  0
 14 23  1  0
 17 18  1  0
 17 19  1  0
 17 20  1  0
 20 21  1  0
 20 22  1  0
 20 26  1  0
 23 24  1  0
 23 25  1  0
 23 29  1  0
 26 27  1  0
 26 28  1  0
 26 36  1  0
 29 30  1  0
 29 31  1  0
 29 32  1  0
 32 33  1  0
 32 34  1  0
 32 35  1  0
 36 37  1  0
 36 38  1  0
 36 39  1  0
M  CHG  1   1   1
M  RAD  1   1   2
M  END
$$$$

     RDKit          3D

 39 38  0  0  0  0  0  0  0  0999 V2000
    0.0272    0.6695    1.7758 S   0  0  0  0  0  2  0  0  0  0  0  0
    0.5318   -0.8522    3.2377 Si  0  0  0  0  0  4  0  0  0  0  0  0
    1.7126   -1.6183    2.7799 H   0  0  0  0  0  0  0  0  0  0  0  0
   -0.5654   -1.8204    3.3699 H   0  0  0  0  0  0  0  0  0  0  0  0
   -1.1970    2.1324    2.7941 Si  0  0  0  0  0  4  0  0  0  0  0  0
   -2.5811    1.9289    2.2773 H   0  0  0  0  0  0  0  0  0  0  0  0
   -1.2435    1.8967    4.2244 H   0  0  0  0  0  0  0  0  0  0  0  0
    0.9521    0.2044    5.1278 Si  0  0  0  0  0  4  0  0  0  0  0  0
   -0.2858    0.7903    5.6458 H   0  0  0  0  0  0  0  0  0  0  0  0
    1.8600    1.3412    4.8254 H   0  0  0  0  0  0  0  0  0  0  0  0
   -0.5856    4.1908    2.3350 Si  0  0  0  0  0  4  0  0  0  0  0  0
   -0.0568    4.2500    0.9607 H   0  0  0  0  0  0  0  0  0  0  0  0
   -1.7829    5.0674    2.3725 H   0  0  0  0  0  0  0  0  0  0  0  0
    0.9355    5.0090    3.7068 Si  0  0  0  0  0  4  0  0  0  0  0  0
    0.9960    6.4818    3.4843 H   0  0  0  0  0  0  0  0  0  0  0  0
    2.2851    4.5043    3.4052 H   0  0  0  0  0  0  0  0  0  0  0  0
    1.8703   -1.0600    6.6734 Si  0  0  0  0  0  4  0  0  0  0  0  0
    0.7806   -1.6471    7.5049 H   0  0  0  0  0  0  0  0  0  0  0  0
    2.6976   -2.1345    6.1647 H   0  0  0  0  0  0  0  0  0  0  0  0
    3.0325    0.2844    8.0594 Si  0  0  0  0  0  4  0  0  0  0  0  0
    2.0194    1.0071    8.8787 H   0  0  0  0  0  0  0  0  0  0  0  0
    3.9119   -0.4784    8.9283 H   0  0  0  0  0  0  0  0  0  0  0  0
    0.5037    4.6547    5.8356 Si  0  0  0  0  0  4  0  0  0  0  0  0
    1.3590    5.5789    6.6335 H   0  0  0  0  0  0  0  0  0  0  0  0
    0.8668    3.2972    6.2774 H   0  0  0  0  0  0  0  0  0  0  0  0
    4.1722    1.8126    6.9065 Si  0  0  0  0  0  4  0  0  0  0  0  0
    5.4696    1.1868    6.5263 H   0  0  0  0  0  0  0  0  0  0  0  0
    3.5120    2.1958    5.6707 H   0  0  0  0  0  0  0  0  0  0  0  0
   -1.6020    5.0605    6.3754 Si  0  0  0  0  0  4  0  0  0  0  0  0
   -1.7741    6.4590    6.8636 H   0  0  0  0  0  0  0  0  0  0  0  0
   -2.4565    4.7760    5.2408 H   0  0  0  0  0  0  0  0  0  0  0  0
   -2.1736    3.6863    8.0604 Si  0  0  0  0  0  4  0  0  0  0  0  0
   -3.1239    2.6527    7.5878 H   0  0  0  0  0  0  0  0  0  0  0  0
   -2.7234    4.4459    9.1851 H   0  0  0  0  0  0  0  0  0  0  0  0
   -0.9960    2.9585    8.5676 H   0  0  0  0  0  0  0  0  0  0  0  0
    4.5153    3.6614    8.1123 Si  0  0  0  0  0  4  0  0  0  0  0  0
    5.9657    3.8461    8.2752 H   0  0  0  0  0  0  0  0  0  0  0  0
    4.0097    4.8629    7.4091 H   0  0  0  0  0  0  0  0  0  0  0  0
    3.8139    3.5745    9.3949 H   0  0  0  0  0  0  0  0  0  0  0  0
  1  2  1  0
  1  5  1  0
  2  3  1  0
  2  4  1  0
  2  8  1  0
  5  6  1  0
  5  7  1  0
  5 11  1  0
  8  9  1  0
  8 10  1  0
  8 17  1  0
 11 12  1  0
 11 13  1  0
 11 14  1  0
 14 15  1  0
 14 16  1  0
 14 23  1  0
 17 18  1  0
 17 19  1  0
 17 20  1  0
 20 21  1  0
 20 22  1  0
 20 26  1  0
 23 24  1  0
 23 25  1  0
 23 29  1  0
 26 27  1  0
 26 28  1  0
 26 36  1  0
 29 30  1  0
 29 31  1  0
 29 32  1  0
 32 33  1  0
 32 34  1  0
 32 35  1  0
 36 37  1  0
 36 38  1  0
 36 39  1  0
M  CHG  1   1   1
M  RAD  1   1   2
M  END
$$$$
