
     RDKit          3D

 39 38  0  0  0  0  0  0  0  0999 V2000
    1.2480    0.0530    2.1118 S   0  0  0  0  0  2  0  0  0  0  0  0
    2.8097   -0.6647    3.3908 Si  0  0  0  0  0  4  0  0  0  0  0  0
    2.9279    0.2981    4.4885 H   0  0  0  0  0  0  0  0  0  0  0  0
    2.3822   -1.9623    3.9263 H   0  0  0  0  0  0  0  0  0  0  0  0
   -0.2530    0.9613    3.3286 Si  0  0  0  0  0  4  0  0  0  0  0  0
   -0.1149    2.4057    3.4198 H   0  0  0  0  0  0  0  0  0  0  0  0
   -1.5648    0.6992    2.6692 H   0  0  0  0  0  0  0  0  0  0  0  0
    4.7518   -0.8313    2.3604 Si  0  0  0  0  0  4  0  0  0  0  0  0
    5.0050   -2.2753    2.0891 H   0  0  0  0  0  0  0  0  0  0  0  0
    4.8369   -0.0735    1.1260 H   0  0  0  0  0  0  0  0  0  0  0  0
   -0.3398    0.1079    5.3622 Si  0  0  0  0  0  4  0  0  0  0  0  0
   -0.3223   -1.3691    5.3525 H   0  0  0  0  0  0  0  0  0  0  0  0
   -1.6543    0.4849    5.9576 H   0  0  0  0  0  0  0  0  0  0  0  0
    1.2347    0.9294    6.7056 Si  0  0  0  0  0  4  0  0  0  0  0  0
    2.3961    0.0007    6.8099 H   0  0  0  0  0  0  0  0  0  0  0  0
    0.6917    1.0145    8.0922 H   0  0  0  0  0  0  0  0  0  0  0  0
    6.3699   -0.2034    3.8069 Si  0  0  0  0  0  4  0  0  0  0  0  0
    6.1697    1.2587    4.0102 H   0  0  0  0  0  0  0  0  0  0  0  0
    7.6880   -0.4174    3.2395 H   0  0  0  0  0  0  0  0  0  0  0  0
    6.0400   -1.2916    5.7104 Si  0  0  0  0  0  4  0  0  0  0  0  0
    4.7983   -2.1135    5.6646 H   0  0  0  0  0  0  0  0  0  0  0  0
    7.1690   -2.2268    5.8976 H   0  0  0  0  0  0  0  0  0  0  0  0
    1.8565    2.9682    6.1100 Si  0  0  0  0  0  4  0  0  0  0  0  0
    1.1685    3.2986    4.8370 H   0  0  0  0  0  0  0  0  0  0  0  0
    3.3107    3.0055    5.7880 H   0  0  0  0  0  0  0  0  0  0  0  0
    5.8967    0.0533    7.4571 Si  0  0  0  0  0  4  0  0  0  0  0  0
    6.6552   -0.5453    8.5926 H   0  0  0  0  0  0  0  0  0  0  0  0
    4.5008    0.1873    7.9524 H   0  0  0  0  0  0  0  0  0  0  0  0
    1.3192    4.4918    7.6274 Si  0  0  0  0  0  4  0  0  0  0  0  0
   -0.1546    4.6293    7.6270 H   0  0  0  0  0  0  0  0  0  0  0  0
    1.9283    5.7750    7.2149 H   0  0  0  0  0  0  0  0  0  0  0  0
    2.0814    3.8691    9.6278 Si  0  0  0  0  0  4  0  0  0  0  0  0
    2.6667    2.5067    9.5806 H   0  0  0  0  0  0  0  0  0  0  0  0
    3.1238    4.8032   10.0880 H   0  0  0  0  0  0  0  0  0  0  0  0
    0.9782    3.9487   10.5937 H   0  0  0  0  0  0  0  0  0  0  0  0
    6.7096    2.0667    7.0811 Si  0  0  0  0  0  4  0  0  0  0  0  0
    6.2570    2.5608    5.7891 H   0  0  0  0  0  0  0  0  0  0  0  0
    8.1816    2.0066    7.1823 H   0  0  0  0  0  0  0  0  0  0  0  0
    6.2374    2.9741    8.1589 H   0  0  0  0  0  0  0  0  0  0  0  0
  1  2  1  0
  1  5  1  0
  2  3  1  0
  2  4  1  0
  2  8  1  0
  5  6  1  0
  5  7  1  0
  5 11  1  0
  8  9  1  0
  8 10  1  0
  8 17  1  0
 11 12  1  0
 11 13  1  0
 11 14  1  0
 14 15  1  0
 14 16  1  0
 14 23  1  0
 17 18  1  0
 17 19  1  0
 17 20  1  0
 20 21  1  0
 20 22  1  0
 20 26  1  0
 23 24  1  0
 23 25  1  0
 23 29  1  0
 26 27  1  0
 26 28  1  0
 26 36  1  0
 29 30  1  0
 29 31  1  0
 29 32  1  0
 32 33  1  0
 32 34  1  0
 32 35  1  0
 36 37  1  0
 36 38  1  0
 36 39  1  0
M  CHG  1   1   1
M  RAD  1   1   2
M  END
$$$$

     RDKit          3D

 39 38  0  0  0  0  0  0  0  0999 V2000
    1.2480    0.0530    2.1118 S   0  0  0  0  0  2  0  0  0  0  0  0
    0.6764   -1.6824    3.2675 Si  0  0  0  0  0  4  0  0  0  0  0  0
   -0.7590   -1.7201    3.5070 H   0  0  0  0  0  0  0  0  0  0  0  0
    1.0845   -2.9231    2.5968 H   0  0  0  0  0  0  0  0  0  0  0  0
    3.0103    0.9609    2.9841 Si  0  0  0  0  0  4  0  0  0  0  0  0
    3.6895    1.6806    1.8812 H   0  0  0  0  0  0  0  0  0  0  0  0
    3.9420   -0.0769    3.4532 H   0  0  0  0  0  0  0  0  0  0  0  0
    1.7152   -1.6165    5.2423 Si  0  0  0  0  0  4  0  0  0  0  0  0
    2.2376   -2.9434    5.6265 H   0  0  0  0  0  0  0  0  0  0  0  0
    2.8460   -0.7164    5.1284 H   0  0  0  0  0  0  0  0  0  0  0  0
    2.4363    2.3319    4.6268 Si  0  0  0  0  0  4  0  0  0  0  0  0
    2.0267    3.6200    4.0153 H   0  0  0  0  0  0  0  0  0  0  0  0
    1.2806    1.7994    5.3388 H   0  0  0  0  0  0  0  0  0  0  0  0
    4.1165    2.7457    6.0155 Si  0  0  0  0  0  4  0  0  0  0  0  0
    3.6949    3.8715    6.8958 H   0  0  0  0  0  0  0  0  0  0  0  0
    5.2800    3.2228    5.2639 H   0  0  0  0  0  0  0  0  0  0  0  0
    0.2793   -0.9869    6.8407 Si  0  0  0  0  0  4  0  0  0  0  0  0
   -0.3029    0.3260    6.5555 H   0  0  0  0  0  0  0  0  0  0  0  0
    0.9822   -1.0112    8.1352 H   0  0  0  0  0  0  0  0  0  0  0  0
   -1.3185   -2.5751    6.9357 Si  0  0  0  0  0  4  0  0  0  0  0  0
   -2.1451   -2.3816    8.1170 H   0  0  0  0  0  0  0  0  0  0  0  0
   -2.0643   -2.5735    5.6841 H   0  0  0  0  0  0  0  0  0  0  0  0
    4.6063    1.0251    7.3089 Si  0  0  0  0  0  4  0  0  0  0  0  0
    3.3920    0.2002    7.5246 H   0  0  0  0  0  0  0  0  0  0  0  0
    5.5824    0.1652    6.6421 H   0  0  0  0  0  0  0  0  0  0  0  0
   -0.2493   -4.5477    7.0969 Si  0  0  0  0  0  4  0  0  0  0  0  0
   -1.2002   -5.6371    7.3102 H   0  0  0  0  0  0  0  0  0  0  0  0
    0.5187   -4.7335    5.8587 H   0  0  0  0  0  0  0  0  0  0  0  0
    5.4244    1.6276    9.2785 Si  0  0  0  0  0  4  0  0  0  0  0  0
    6.7870    2.1586    9.1548 H   0  0  0  0  0  0  0  0  0  0  0  0
    5.5224    0.4107   10.1165 H   0  0  0  0  0  0  0  0  0  0  0  0
    4.0766    3.0550   10.3329 Si  0  0  0  0  0  4  0  0  0  0  0  0
    4.8244    3.5828   11.4968 H   0  0  0  0  0  0  0  0  0  0  0  0
    2.9090    2.3300   10.8656 H   0  0  0  0  0  0  0  0  0  0  0  0
    3.6534    4.1522    9.4365 H   0  0  0  0  0  0  0  0  0  0  0  0
    1.1861   -4.3735    8.8111 Si  0  0  0  0  0  4  0  0  0  0  0  0
    1.0503   -5.5897    9.6447 H   0  0  0  0  0  0  0  0  0  0  0  0
    2.5800   -4.3454    8.3341 H   0  0  0  0  0  0  0  0  0  0  0  0
    0.8733   -3.2013    9.6499 H   0  0  0  0  0  0  0  0  0  0  0  0
  1  2  1  0
  1  5  1  0
  2  3  1  0
  2  4  1  0
  2  8  1  0
  5  6  1  0
  5  7  1  0
  5 11  1  0
  8  9  1  0
  8 10  1  0
  8 17  1  0
 11 12  1  0
 11 13  1  0
 11 14  1  0
 14 15  1  0
 14 16  1  0
 14 23  1  0
 17 18  1  0
 17 19  1  0
 17 20  1  0
 20 21  1  0
 20 22  1  0
 20 26  1  0
 23 24  1  0
 23 25  1  0
 23 29  1  0
 26 27  1  0
 26 28  1  0
 26 36  1  0
 29 30  1  0
 29 31  1  0
 29 32  1  0
 32 33  1  0
 32 34  1  0
 32 35  1  0
 36 37  1  0
 36 38  1  0
 36 39  1  0
M  CHG  1   1   1
M  RAD  1   1   2
M  END
$$$$
