
     RDKit          3D

 39 38  0  0  0  0  0  0  0  0999 V2000
    0.2266    0.0276   -5.3996 S   0  0  0  0  0  2  0  0  0  0  0  0
   -0.0954    1.7534   -6.5828 Si  0  0  0  0  0  4  0  0  0  0  0  0
   -1.5602    1.8676   -6.8357 H   0  0  0  0  0  0  0  0  0  0  0  0
    0.2600    2.9522   -5.7921 H   0  0  0  0  0  0  0  0  0  0  0  0
   -0.2070   -1.7529   -6.5097 Si  0  0  0  0  0  4  0  0  0  0  0  0
   -0.0426   -2.9331   -5.6533 H   0  0  0  0  0  0  0  0  0  0  0  0
    0.7509   -1.8087   -7.6344 H   0  0  0  0  0  0  0  0  0  0  0  0
    0.9507    1.7052   -8.5220 Si  0  0  0  0  0  4  0  0  0  0  0  0
    1.3822    3.0945   -8.8475 H   0  0  0  0  0  0  0  0  0  0  0  0
    0.0215    1.3163   -9.5986 H   0  0  0  0  0  0  0  0  0  0  0  0
   -2.2543   -1.6945   -7.3914 Si  0  0  0  0  0  4  0  0  0  0  0  0
   -3.0903   -0.7614   -6.6497 H   0  0  0  0  0  0  0  0  0  0  0  0
   -2.8470   -3.0398   -7.2605 H   0  0  0  0  0  0  0  0  0  0  0  0
   -2.1556   -1.1635   -9.5749 Si  0  0  0  0  0  4  0  0  0  0  0  0
   -0.7237   -0.9444   -9.9219 H   0  0  0  0  0  0  0  0  0  0  0  0
   -2.6163   -2.2692  -10.4131 H   0  0  0  0  0  0  0  0  0  0  0  0
    2.6647    0.3019   -8.5545 Si  0  0  0  0  0  4  0  0  0  0  0  0
    3.9098    1.1210   -8.6016 H   0  0  0  0  0  0  0  0  0  0  0  0
    2.7594   -0.5191   -7.3506 H   0  0  0  0  0  0  0  0  0  0  0  0
    2.6322   -0.9380  -10.4166 Si  0  0  0  0  0  4  0  0  0  0  0  0
    3.7630   -0.6249  -11.2981 H   0  0  0  0  0  0  0  0  0  0  0  0
    1.4037   -0.6268  -11.1831 H   0  0  0  0  0  0  0  0  0  0  0  0
   -3.3322    0.6875   -9.8755 Si  0  0  0  0  0  4  0  0  0  0  0  0
   -3.0050    1.6139   -8.7577 H   0  0  0  0  0  0  0  0  0  0  0  0
   -4.7627    0.3432   -9.7683 H   0  0  0  0  0  0  0  0  0  0  0  0
    2.7024   -3.1102   -9.9555 Si  0  0  0  0  0  4  0  0  0  0  0  0
    2.4211   -3.2896   -8.5161 H   0  0  0  0  0  0  0  0  0  0  0  0
    3.9943   -3.7122  -10.2429 H   0  0  0  0  0  0  0  0  0  0  0  0
   -2.9727    1.6497  -11.8167 Si  0  0  0  0  0  4  0  0  0  0  0  0
   -2.9829    3.1200  -11.6268 H   0  0  0  0  0  0  0  0  0  0  0  0
   -4.0424    1.3052  -12.7660 H   0  0  0  0  0  0  0  0  0  0  0  0
   -1.0261    1.0928  -12.7248 Si  0  0  0  0  0  4  0  0  0  0  0  0
   -0.8859   -0.3489  -12.8896 H   0  0  0  0  0  0  0  0  0  0  0  0
   -0.9694    1.7138  -14.0715 H   0  0  0  0  0  0  0  0  0  0  0  0
    0.1163    1.6333  -11.9757 H   0  0  0  0  0  0  0  0  0  0  0  0
    1.0572   -4.1702  -11.0597 Si  0  0  0  0  0  4  0  0  0  0  0  0
    0.4769   -5.2363  -10.2254 H   0  0  0  0  0  0  0  0  0  0  0  0
    1.6105   -4.7953  -12.2605 H   0  0  0  0  0  0  0  0  0  0  0  0
   -0.0118   -3.2308  -11.3834 H   0  0  0  0  0  0  0  0  0  0  0  0
  1  2  1  0
  1  5  1  0
  2  3  1  0
  2  4  1  0
  2  8  1  0
  5  6  1  0
  5  7  1  0
  5 11  1  0
  8  9  1  0
  8 10  1  0
  8 17  1  0
 11 12  1  0
 11 13  1  0
 11 14  1  0
 14 15  1  0
 14 16  1  0
 14 23  1  0
 17 18  1  0
 17 19  1  0
 17 20  1  0
 20 21  1  0
 20 22  1  0
 20 26  1  0
 23 24  1  0
 23 25  1  0
 23 29  1  0
 26 27  1  0
 26 28  1  0
 26 36  1  0
 29 30  1  0
 29 31  1  0
 29 32  1  0
 32 33  1  0
 32 34  1  0
 32 35  1  0
 36 37  1  0
 36 38  1  0
 36 39  1  0
M  CHG  1   1   1
M  RAD  1   1   2
M  END
$$$$

     RDKit          3D

 39 38  0  0  0  0  0  0  0  0999 V2000
    0.2266    0.0276   -5.3996 S   0  0  0  0  0  2  0  0  0  0  0  0
   -0.7334   -1.4536   -6.5686 Si  0  0  0  0  0  4  0  0  0  0  0  0
    0.2334   -2.5692   -6.7772 H   0  0  0  0  0  0  0  0  0  0  0  0
   -1.8439   -2.0394   -5.7861 H   0  0  0  0  0  0  0  0  0  0  0  0
    1.8078    0.9650   -6.5003 Si  0  0  0  0  0  4  0  0  0  0  0  0
    2.5030    1.9398   -5.6520 H   0  0  0  0  0  0  0  0  0  0  0  0
    1.1877    1.6517   -7.6534 H   0  0  0  0  0  0  0  0  0  0  0  0
   -1.4055   -0.7289   -8.5384 Si  0  0  0  0  0  4  0  0  0  0  0  0
   -2.6820   -1.4221   -8.8735 H   0  0  0  0  0  0  0  0  0  0  0  0
   -0.4501   -1.1291   -9.5876 H   0  0  0  0  0  0  0  0  0  0  0  0
    3.2406   -0.5341   -7.3201 Si  0  0  0  0  0  4  0  0  0  0  0  0
    3.1652   -1.7683   -6.5515 H   0  0  0  0  0  0  0  0  0  0  0  0
    4.6047    0.0102   -7.1747 H   0  0  0  0  0  0  0  0  0  0  0  0
    2.8403   -0.8923   -9.5044 Si  0  0  0  0  0  4  0  0  0  0  0  0
    1.6746   -0.0507   -9.8936 H   0  0  0  0  0  0  0  0  0  0  0  0
    3.9614   -0.4479  -10.3310 H   0  0  0  0  0  0  0  0  0  0  0  0
   -1.6384    1.4725   -8.6256 Si  0  0  0  0  0  4  0  0  0  0  0  0
   -3.0987    1.7626   -8.7080 H   0  0  0  0  0  0  0  0  0  0  0  0
   -1.1528    2.1506   -7.4269 H   0  0  0  0  0  0  0  0  0  0  0  0
   -0.7076    2.2898  -10.4887 Si  0  0  0  0  0  4  0  0  0  0  0  0
   -1.7146    2.8409  -11.4030 H   0  0  0  0  0  0  0  0  0  0  0  0
   -0.0371    1.1883  -11.2173 H   0  0  0  0  0  0  0  0  0  0  0  0
    2.3830   -3.0426   -9.7653 Si  0  0  0  0  0  4  0  0  0  0  0  0
    1.4774   -3.4468   -8.6555 H   0  0  0  0  0  0  0  0  0  0  0  0
    3.6404   -3.7995   -9.6160 H   0  0  0  0  0  0  0  0  0  0  0  0
    0.7593    3.8954  -10.0350 Si  0  0  0  0  0  4  0  0  0  0  0  0
    1.0571    3.8583   -8.5882 H   0  0  0  0  0  0  0  0  0  0  0  0
    0.2688    5.2245  -10.3624 H   0  0  0  0  0  0  0  0  0  0  0  0
    1.4895   -3.5191  -11.7141 Si  0  0  0  0  0  4  0  0  0  0  0  0
    0.4601   -4.5683  -11.5206 H   0  0  0  0  0  0  0  0  0  0  0  0
    2.5113   -4.0465  -12.6317 H   0  0  0  0  0  0  0  0  0  0  0  0
    0.5138   -1.7766  -12.6814 Si  0  0  0  0  0  4  0  0  0  0  0  0
    1.4301   -0.6559  -12.8537 H   0  0  0  0  0  0  0  0  0  0  0  0
    0.0638   -2.2093  -14.0278 H   0  0  0  0  0  0  0  0  0  0  0  0
   -0.6934   -1.3421  -11.9657 H   0  0  0  0  0  0  0  0  0  0  0  0
    2.6962    3.4695  -11.0918 Si  0  0  0  0  0  4  0  0  0  0  0  0
    3.8416    3.8398  -10.2430 H   0  0  0  0  0  0  0  0  0  0  0  0
    2.7654    4.2757  -12.3101 H   0  0  0  0  0  0  0  0  0  0  0  0
    2.8032    2.0431  -11.3811 H   0  0  0  0  0  0  0  0  0  0  0  0
  1  2  1  0
  1  5  1  0
  2  3  1  0
  2  4  1  0
  2  8  1  0
  5  6  1  0
  5  7  1  0
  5 11  1  0
  8  9  1  0
  8 10  1  0
  8 17  1  0
 11 12  1  0
 11 13  1  0
 11 14  1  0
 14 15  1  0
 14 16  1  0
 14 23  1  0
 17 18  1  0
 17 19  1  0
 17 20  1  0
 20 21  1  0
 20 22  1  0
 20 26  1  0
 23 24  1  0
 23 25  1  0
 23 29  1  0
 26 27  1  0
 26 28  1  0
 26 36  1  0
 29 30  1  0
 29 31  1  0
 29 32  1  0
 32 33  1  0
 32 34  1  0
 32 35  1  0
 36 37  1  0
 36 38  1  0
 36 39  1  0
M  CHG  1   1   1
M  RAD  1   1   2
M  END
$$$$

     RDKit          3D

 39 38  0  0  0  0  0  0  0  0999 V2000
    0.2266    0.0276   -5.3996 S   0  0  0  0  0  2  0  0  0  0  0  0
    2.0032    0.1801   -6.5408 Si  0  0  0  0  0  4  0  0  0  0  0  0
    2.2713    1.6274   -6.7783 H   0  0  0  0  0  0  0  0  0  0  0  0
    3.1412   -0.3001   -5.7265 H   0  0  0  0  0  0  0  0  0  0  0  0
   -1.4744    0.6468   -6.5456 Si  0  0  0  0  0  4  0  0  0  0  0  0
   -2.6847    0.5977   -5.7175 H   0  0  0  0  0  0  0  0  0  0  0  0
   -1.6008   -0.2932   -7.6796 H   0  0  0  0  0  0  0  0  0  0  0  0
    1.8944   -0.8432   -8.4897 Si  0  0  0  0  0  4  0  0  0  0  0  0
    3.2400   -1.4115   -8.7876 H   0  0  0  0  0  0  0  0  0  0  0  0
    1.6269    0.1275   -9.5666 H   0  0  0  0  0  0  0  0  0  0  0  0
   -1.1882    2.6832   -7.4079 Si  0  0  0  0  0  4  0  0  0  0  0  0
   -0.1927    3.4154   -6.6382 H   0  0  0  0  0  0  0  0  0  0  0  0
   -2.4692    3.4086   -7.3022 H   0  0  0  0  0  0  0  0  0  0  0  0
   -0.6193    2.5450   -9.5798 Si  0  0  0  0  0  4  0  0  0  0  0  0
   -0.5385    1.1005   -9.9342 H   0  0  0  0  0  0  0  0  0  0  0  0
   -1.6528    3.1209  -10.4386 H   0  0  0  0  0  0  0  0  0  0  0  0
    0.3257   -2.4056   -8.5687 Si  0  0  0  0  0  4  0  0  0  0  0  0
    1.0153   -3.7271   -8.6081 H   0  0  0  0  0  0  0  0  0  0  0  0
   -0.5284   -2.4241   -7.3844 H   0  0  0  0  0  0  0  0  0  0  0  0
   -0.8608   -2.2355  -10.4578 Si  0  0  0  0  0  4  0  0  0  0  0  0
   -0.6436   -3.3866  -11.3418 H   0  0  0  0  0  0  0  0  0  0  0  0
   -0.4090   -1.0401  -11.2064 H   0  0  0  0  0  0  0  0  0  0  0  0
    1.3480    3.5294   -9.8284 Si  0  0  0  0  0  4  0  0  0  0  0  0
    2.2102    3.1027   -8.6929 H   0  0  0  0  0  0  0  0  0  0  0  0
    1.1480    4.9867   -9.7165 H   0  0  0  0  0  0  0  0  0  0  0  0
   -3.0391   -2.0876  -10.0464 Si  0  0  0  0  0  4  0  0  0  0  0  0
   -3.2225   -1.7988   -8.6090 H   0  0  0  0  0  0  0  0  0  0  0  0
   -3.7621   -3.3099  -10.3584 H   0  0  0  0  0  0  0  0  0  0  0  0
    2.3137    3.0865  -11.7505 Si  0  0  0  0  0  4  0  0  0  0  0  0
    3.7726    2.9460  -11.5275 H   0  0  0  0  0  0  0  0  0  0  0  0
    2.1016    4.1917  -12.6979 H   0  0  0  0  0  0  0  0  0  0  0  0
    1.5836    1.2123  -12.6878 Si  0  0  0  0  0  4  0  0  0  0  0  0
    0.1393    1.2203  -12.8862 H   0  0  0  0  0  0  0  0  0  0  0  0
    2.2268    1.1014  -14.0206 H   0  0  0  0  0  0  0  0  0  0  0  0
    1.9879    0.0162  -11.9367 H   0  0  0  0  0  0  0  0  0  0  0  0
   -3.9008   -0.3363  -11.1597 Si  0  0  0  0  0  4  0  0  0  0  0  0
   -4.9218    0.3440  -10.3446 H   0  0  0  0  0  0  0  0  0  0  0  0
   -4.5507   -0.8156  -12.3791 H   0  0  0  0  0  0  0  0  0  0  0  0
   -2.8507    0.6339  -11.4528 H   0  0  0  0  0  0  0  0  0  0  0  0
  1  2  1  0
  1  5  1  0
  2  3  1  0
  2  4  1  0
  2  8  1  0
  5  6  1  0
  5  7  1  0
  5 11  1  0
  8  9  1  0
  8 10  1  0
  8 17  1  0
 11 12  1  0
 11 13  1  0
 11 14  1  0
 14 15  1  0
 14 16  1  0
 14 23  1  0
 17 18  1  0
 17 19  1  0
 17 20  1  0
 20 21  1  0
 20 22  1  0
 20 26  1  0
 23 24  1  0
 23 25  1  0
 23 29  1  0
 26 27  1  0
 26 28  1  0
 26 36  1  0
 29 30  1  0
 29 31  1  0
 29 32  1  0
 32 33  1  0
 32 34  1  0
 32 35  1  0
 36 37  1  0
 36 38  1  0
 36 39  1  0
M  CHG  1   1   1
M  RAD  1   1   2
M  END
$$$$

     RDKit          3D

 39 38  0  0  0  0  0  0  0  0999 V2000
    0.2266    0.0276   -5.3996 S   0  0  0  0  0  2  0  0  0  0  0  0
   -0.4388    1.6491   -6.5870 Si  0  0  0  0  0  4  0  0  0  0  0  0
   -1.8968    1.4642   -6.8376 H   0  0  0  0  0  0  0  0  0  0  0  0
   -0.3322    2.8974   -5.8003 H   0  0  0  0  0  0  0  0  0  0  0  0
    0.1604   -1.8073   -6.5039 Si  0  0  0  0  0  4  0  0  0  0  0  0
    0.5609   -2.9272   -5.6446 H   0  0  0  0  0  0  0  0  0  0  0  0
    1.1085   -1.6718   -7.6302 H   0  0  0  0  0  0  0  0  0  0  0  0
    0.5931    1.8072   -8.5279 Si  0  0  0  0  0  4  0  0  0  0  0  0
    0.7346    3.2541   -8.8581 H   0  0  0  0  0  0  0  0  0  0  0  0
   -0.2396    1.2354   -9.6018 H   0  0  0  0  0  0  0  0  0  0  0  0
   -1.8575   -2.1664   -7.3821 Si  0  0  0  0  0  4  0  0  0  0  0  0
   -2.8639   -1.4192   -6.6416 H   0  0  0  0  0  0  0  0  0  0  0  0
   -2.1660   -3.6033   -7.2465 H   0  0  0  0  0  0  0  0  0  0  0  0
   -1.8707   -1.6332   -9.5673 Si  0  0  0  0  0  4  0  0  0  0  0  0
   -0.5130   -1.1303   -9.9175 H   0  0  0  0  0  0  0  0  0  0  0  0
   -2.0995   -2.8117  -10.4017 H   0  0  0  0  0  0  0  0  0  0  0  0
    2.5552    0.7792   -8.5596 Si  0  0  0  0  0  4  0  0  0  0  0  0
    3.6090    1.8328   -8.6112 H   0  0  0  0  0  0  0  0  0  0  0  0
    2.8153   -0.0020   -7.3536 H   0  0  0  0  0  0  0  0  0  0  0  0
    2.7718   -0.4475  -10.4182 Si  0  0  0  0  0  4  0  0  0  0  0  0
    3.8149    0.0849  -11.3025 H   0  0  0  0  0  0  0  0  0  0  0  0
    1.5049   -0.3933  -11.1834 H   0  0  0  0  0  0  0  0  0  0  0  0
   -3.3974   -0.0590   -9.8710 Si  0  0  0  0  0  4  0  0  0  0  0  0
   -3.2628    0.9179   -8.7563 H   0  0  0  0  0  0  0  0  0  0  0  0
   -4.7287   -0.6850   -9.7602 H   0  0  0  0  0  0  0  0  0  0  0  0
    3.2800   -2.5592   -9.9512 Si  0  0  0  0  0  4  0  0  0  0  0  0
    3.0424   -2.7873   -8.5108 H   0  0  0  0  0  0  0  0  0  0  0  0
    4.6666   -2.8887  -10.2391 H   0  0  0  0  0  0  0  0  0  0  0  0
   -3.2421    0.9500  -11.8155 Si  0  0  0  0  0  4  0  0  0  0  0  0
   -3.5489    2.3885  -11.6297 H   0  0  0  0  0  0  0  0  0  0  0  0
   -4.2212    0.3935  -12.7619 H   0  0  0  0  0  0  0  0  0  0  0  0
   -1.2242    0.7951  -12.7255 Si  0  0  0  0  0  4  0  0  0  0  0  0
   -0.7957   -0.5890  -12.8865 H   0  0  0  0  0  0  0  0  0  0  0  0
   -1.2957    1.4106  -14.0740 H   0  0  0  0  0  0  0  0  0  0  0  0
   -0.2137    1.5576  -11.9799 H   0  0  0  0  0  0  0  0  0  0  0  0
    1.8816   -3.9332  -11.0495 Si  0  0  0  0  0  4  0  0  0  0  0  0
    1.5297   -5.0921  -10.2112 H   0  0  0  0  0  0  0  0  0  0  0  0
    2.5484   -4.4373  -12.2495 H   0  0  0  0  0  0  0  0  0  0  0  0
    0.6444   -3.2302  -11.3738 H   0  0  0  0  0  0  0  0  0  0  0  0
  1  2  1  0
  1  5  1  0
  2  3  1  0
  2  4  1  0
  2  8  1  0
  5  6  1  0
  5  7  1  0
  5 11  1  0
  8  9  1  0
  8 10  1  0
  8 17  1  0
 11 12  1  0
 11 13  1  0
 11 14  1  0
 14 15  1  0
 14 16  1  0
 14 23  1  0
 17 18  1  0
 17 19  1  0
 17 20  1  0
 20 21  1  0
 20 22  1  0
 20 26  1  0
 23 24  1  0
 23 25  1  0
 23 29  1  0
 26 27  1  0
 26 28  1  0
 26 36  1  0
 29 30  1  0
 29 31  1  0
 29 32  1  0
 32 33  1  0
 32 34  1  0
 32 35  1  0
 36 37  1  0
 36 38  1  0
 36 39  1  0
M  CHG  1   1   1
M  RAD  1   1   2
M  END
$$$$

     RDKit          3D

 39 38  0  0  0  0  0  0  0  0999 V2000
    0.2266    0.0276   -5.3996 S   0  0  0  0  0  2  0  0  0  0  0  0
    1.1276    1.5492   -6.5635 Si  0  0  0  0  0  4  0  0  0  0  0  0
    0.1005    2.5997   -6.8170 H   0  0  0  0  0  0  0  0  0  0  0  0
    2.1765    2.2134   -5.7589 H   0  0  0  0  0  0  0  0  0  0  0  0
   -1.2607   -1.0212   -6.5303 Si  0  0  0  0  0  4  0  0  0  0  0  0
   -1.9193   -2.0254   -5.6872 H   0  0  0  0  0  0  0  0  0  0  0  0
   -0.5658   -1.6838   -7.6544 H   0  0  0  0  0  0  0  0  0  0  0  0
    1.9008    0.8406   -8.5019 Si  0  0  0  0  0  4  0  0  0  0  0  0
    3.1415    1.6070   -8.8111 H   0  0  0  0  0  0  0  0  0  0  0  0
    0.9539    1.1663   -9.5840 H   0  0  0  0  0  0  0  0  0  0  0  0
   -2.7583    0.3748   -7.4138 Si  0  0  0  0  0  4  0  0  0  0  0  0
   -2.7817    1.6218   -6.6627 H   0  0  0  0  0  0  0  0  0  0  0  0
   -4.0901   -0.2509   -7.2990 H   0  0  0  0  0  0  0  0  0  0  0  0
   -2.3168    0.7271   -9.5911 Si  0  0  0  0  0  4  0  0  0  0  0  0
   -1.0905   -0.0458   -9.9338 H   0  0  0  0  0  0  0  0  0  0  0  0
   -3.3834    0.2028  -10.4424 H   0  0  0  0  0  0  0  0  0  0  0  0
    2.2713   -1.3431   -8.5482 Si  0  0  0  0  0  4  0  0  0  0  0  0
    3.7485   -1.5432   -8.5844 H   0  0  0  0  0  0  0  0  0  0  0  0
    1.7933   -2.0335   -7.3535 H   0  0  0  0  0  0  0  0  0  0  0  0
    1.4479   -2.2420  -10.4243 Si  0  0  0  0  0  4  0  0  0  0  0  0
    2.5134   -2.7421  -11.3007 H   0  0  0  0  0  0  0  0  0  0  0  0
    0.7326   -1.1944  -11.1887 H   0  0  0  0  0  0  0  0  0  0  0  0
   -1.9852    2.8979   -9.8722 Si  0  0  0  0  0  4  0  0  0  0  0  0
   -1.1393    3.3726   -8.7435 H   0  0  0  0  0  0  0  0  0  0  0  0
   -3.2907    3.5773   -9.7706 H   0  0  0  0  0  0  0  0  0  0  0  0
    0.0698   -3.9291   -9.9878 Si  0  0  0  0  0  4  0  0  0  0  0  0
   -0.2721   -3.8907   -8.5508 H   0  0  0  0  0  0  0  0  0  0  0  0
    0.6507   -5.2296  -10.2803 H   0  0  0  0  0  0  0  0  0  0  0  0
   -1.0658    3.4021  -11.8019 Si  0  0  0  0  0  4  0  0  0  0  0  0
   -0.1091    4.5156  -11.5953 H   0  0  0  0  0  0  0  0  0  0  0  0
   -2.0906    3.8525  -12.7563 H   0  0  0  0  0  0  0  0  0  0  0  0
    0.0434    1.7103  -12.7138 Si  0  0  0  0  0  4  0  0  0  0  0  0
   -0.7966    0.5327  -12.8947 H   0  0  0  0  0  0  0  0  0  0  0  0
    0.5055    2.1516  -14.0533 H   0  0  0  0  0  0  0  0  0  0  0  0
    1.2535    1.3614  -11.9572 H   0  0  0  0  0  0  0  0  0  0  0  0
   -1.8576   -3.6387  -11.1059 Si  0  0  0  0  0  4  0  0  0  0  0  0
   -3.0025   -4.0676  -10.2844 H   0  0  0  0  0  0  0  0  0  0  0  0
   -1.8411   -4.4642  -12.3130 H   0  0  0  0  0  0  0  0  0  0  0  0
   -2.0436   -2.2257  -11.4202 H   0  0  0  0  0  0  0  0  0  0  0  0
  1  2  1  0
  1  5  1  0
  2  3  1  0
  2  4  1  0
  2  8  1  0
  5  6  1  0
  5  7  1  0
  5 11  1  0
  8  9  1  0
  8 10  1  0
  8 17  1  0
 11 12  1  0
 11 13  1  0
 11 14  1  0
 14 15  1  0
 14 16  1  0
 14 23  1  0
 17 18  1  0
 17 19  1  0
 17 20  1  0
 20 21  1  0
 20 22  1  0
 20 26  1  0
 23 24  1  0
 23 25  1  0
 23 29  1  0
 26 27  1  0
 26 28  1  0
 26 36  1  0
 29 30  1  0
 29 31  1  0
 29 32  1  0
 32 33  1  0
 32 34  1  0
 32 35  1  0
 36 37  1  0
 36 38  1  0
 36 39  1  0
M  CHG  1   1   1
M  RAD  1   1   2
M  END
$$$$

     RDKit          3D

 39 38  0  0  0  0  0  0  0  0999 V2000
    0.2266    0.0276   -5.3996 S   0  0  0  0  0  2  0  0  0  0  0  0
   -1.4178   -0.5833   -6.5849 Si  0  0  0  0  0  4  0  0  0  0  0  0
   -1.3029   -2.0536   -6.8033 H   0  0  0  0  0  0  0  0  0  0  0  0
   -2.6645   -0.3990   -5.8100 H   0  0  0  0  0  0  0  0  0  0  0  0
    2.0631   -0.1518   -6.4884 Si  0  0  0  0  0  4  0  0  0  0  0  0
    3.1957    0.2119   -5.6293 H   0  0  0  0  0  0  0  0  0  0  0  0
    1.9815    0.7773   -7.6355 H   0  0  0  0  0  0  0  0  0  0  0  0
   -1.5126    0.4132   -8.5483 Si  0  0  0  0  0  4  0  0  0  0  0  0
   -2.9486    0.6180   -8.8923 H   0  0  0  0  0  0  0  0  0  0  0  0
   -0.9752   -0.4692   -9.6000 H   0  0  0  0  0  0  0  0  0  0  0  0
    2.3288   -2.2032   -7.3211 Si  0  0  0  0  0  4  0  0  0  0  0  0
    1.5284   -3.1558   -6.5651 H   0  0  0  0  0  0  0  0  0  0  0  0
    3.7480   -2.5785   -7.1682 H   0  0  0  0  0  0  0  0  0  0  0  0
    1.8097   -2.2373   -9.5095 Si  0  0  0  0  0  4  0  0  0  0  0  0
    1.3762   -0.8645   -9.8920 H   0  0  0  0  0  0  0  0  0  0  0  0
    2.9811   -2.5411  -10.3299 H   0  0  0  0  0  0  0  0  0  0  0  0
   -0.3895    2.3217   -8.6137 Si  0  0  0  0  0  4  0  0  0  0  0  0
   -1.3900    3.4244   -8.6954 H   0  0  0  0  0  0  0  0  0  0  0  0
    0.3956    2.5692   -7.4075 H   0  0  0  0  0  0  0  0  0  0  0  0
    0.8583    2.4382  -10.4671 Si  0  0  0  0  0  4  0  0  0  0  0  0
    0.3834    3.4869  -11.3772 H   0  0  0  0  0  0  0  0  0  0  0  0
    0.7471    1.1593  -11.2057 H   0  0  0  0  0  0  0  0  0  0  0  0
    0.1647   -3.6915   -9.7927 Si  0  0  0  0  0  4  0  0  0  0  0  0
   -0.8116   -3.4855   -8.6885 H   0  0  0  0  0  0  0  0  0  0  0  0
    0.7240   -5.0490   -9.6491 H   0  0  0  0  0  0  0  0  0  0  0  0
    2.9893    2.8526   -9.9950 Si  0  0  0  0  0  4  0  0  0  0  0  0
    3.1961    2.6352   -8.5482 H   0  0  0  0  0  0  0  0  0  0  0  0
    3.3881    4.2150  -10.3097 H   0  0  0  0  0  0  0  0  0  0  0  0
   -0.8228   -3.5289  -11.7476 Si  0  0  0  0  0  4  0  0  0  0  0  0
   -2.2758   -3.7610  -11.5662 H   0  0  0  0  0  0  0  0  0  0  0  0
   -0.3088   -4.5541  -12.6689 H   0  0  0  0  0  0  0  0  0  0  0  0
   -0.5634   -1.5409  -12.6988 Si  0  0  0  0  0  4  0  0  0  0  0  0
    0.8410   -1.1841  -12.8584 H   0  0  0  0  0  0  0  0  0  0  0  0
   -1.1729   -1.6112  -14.0501 H   0  0  0  0  0  0  0  0  0  0  0  0
   -1.2804   -0.4786  -11.9805 H   0  0  0  0  0  0  0  0  0  0  0  0
    4.3003    1.3656  -11.0531 Si  0  0  0  0  0  4  0  0  0  0  0  0
    5.4350    0.9756  -10.1989 H   0  0  0  0  0  0  0  0  0  0  0  0
    4.8442    1.9811  -12.2632 H   0  0  0  0  0  0  0  0  0  0  0  0
    3.5397    0.1576  -11.3566 H   0  0  0  0  0  0  0  0  0  0  0  0
  1  2  1  0
  1  5  1  0
  2  3  1  0
  2  4  1  0
  2  8  1  0
  5  6  1  0
  5  7  1  0
  5 11  1  0
  8  9  1  0
  8 10  1  0
  8 17  1  0
 11 12  1  0
 11 13  1  0
 11 14  1  0
 14 15  1  0
 14 16  1  0
 14 23  1  0
 17 18  1  0
 17 19  1  0
 17 20  1  0
 20 21  1  0
 20 22  1  0
 20 26  1  0
 23 24  1  0
 23 25  1  0
 23 29  1  0
 26 27  1  0
 26 28  1  0
 26 36  1  0
 29 30  1  0
 29 31  1  0
 29 32  1  0
 32 33  1  0
 32 34  1  0
 32 35  1  0
 36 37  1  0
 36 38  1  0
 36 39  1  0
M  CHG  1   1   1
M  RAD  1   1   2
M  END
$$$$

     RDKit          3D

 39 38  0  0  0  0  0  0  0  0999 V2000
    0.2266    0.0276   -5.3996 S   0  0  0  0  0  2  0  0  0  0  0  0
   -0.7018    1.5119   -6.5898 Si  0  0  0  0  0  4  0  0  0  0  0  0
   -2.1086    1.0852   -6.8379 H   0  0  0  0  0  0  0  0  0  0  0  0
   -0.8046    2.7626   -5.8062 H   0  0  0  0  0  0  0  0  0  0  0  0
    0.4670   -1.7953   -6.4996 Si  0  0  0  0  0  4  0  0  0  0  0  0
    1.0500   -2.8303   -5.6382 H   0  0  0  0  0  0  0  0  0  0  0  0
    1.3779   -1.5060   -7.6275 H   0  0  0  0  0  0  0  0  0  0  0  0
    0.2872    1.8355   -8.5326 Si  0  0  0  0  0  4  0  0  0  0  0  0
    0.1844    3.2848   -8.8663 H   0  0  0  0  0  0  0  0  0  0  0  0
   -0.4393    1.1298   -9.6040 H   0  0  0  0  0  0  0  0  0  0  0  0
   -1.4633   -2.4890   -7.3741 Si  0  0  0  0  0  4  0  0  0  0  0  0
   -2.5797   -1.9187   -6.6338 H   0  0  0  0  0  0  0  0  0  0  0  0
   -1.5270   -3.9570   -7.2346 H   0  0  0  0  0  0  0  0  0  0  0  0
   -1.5677   -1.9710   -9.5605 Si  0  0  0  0  0  4  0  0  0  0  0  0
   -0.3136   -1.2492   -9.9137 H   0  0  0  0  0  0  0  0  0  0  0  0
   -1.5970   -3.1734  -10.3917 H   0  0  0  0  0  0  0  0  0  0  0  0
    2.3935    1.1500   -8.5647 Si  0  0  0  0  0  4  0  0  0  0  0  0
    3.2563    2.3649   -8.6202 H   0  0  0  0  0  0  0  0  0  0  0  0
    2.7818    0.4263   -7.3572 H   0  0  0  0  0  0  0  0  0  0  0  0
    2.8103   -0.0279  -10.4207 Si  0  0  0  0  0  4  0  0  0  0  0  0
    3.7488    0.6692  -11.3078 H   0  0  0  0  0  0  0  0  0  0  0  0
    1.5513   -0.1883  -11.1842 H   0  0  0  0  0  0  0  0  0  0  0  0
   -3.3365   -0.6751   -9.8656 Si  0  0  0  0  0  4  0  0  0  0  0  0
   -3.3660    0.3133   -8.7534 H   0  0  0  0  0  0  0  0  0  0  0  0
   -4.5442   -1.5145   -9.7515 H   0  0  0  0  0  0  0  0  0  0  0  0
    3.6649   -2.0238   -9.9495 Si  0  0  0  0  0  4  0  0  0  0  0  0
    3.4703   -2.2847   -8.5082 H   0  0  0  0  0  0  0  0  0  0  0  0
    5.0868   -2.1174  -10.2387 H   0  0  0  0  0  0  0  0  0  0  0  0
   -3.3540    0.3408  -11.8127 Si  0  0  0  0  0  4  0  0  0  0  0  0
   -3.8969    1.7082  -11.6298 H   0  0  0  0  0  0  0  0  0  0  0  0
   -4.2273   -0.3740  -12.7564 H   0  0  0  0  0  0  0  0  0  0  0  0
   -1.3396    0.5232  -12.7252 Si  0  0  0  0  0  4  0  0  0  0  0  0
   -0.6858   -0.7702  -12.8836 H   0  0  0  0  0  0  0  0  0  0  0  0
   -1.5144    1.1146  -14.0750 H   0  0  0  0  0  0  0  0  0  0  0  0
   -0.4700    1.4458  -11.9829 H   0  0  0  0  0  0  0  0  0  0  0  0
    2.5148   -3.6150  -11.0426 Si  0  0  0  0  0  4  0  0  0  0  0  0
    2.3625   -4.8142  -10.2011 H   0  0  0  0  0  0  0  0  0  0  0  0
    3.2553   -4.0036  -12.2424 H   0  0  0  0  0  0  0  0  0  0  0  0
    1.1772   -3.1296  -11.3668 H   0  0  0  0  0  0  0  0  0  0  0  0
  1  2  1  0
  1  5  1  0
  2  3  1  0
  2  4  1  0
  2  8  1  0
  5  6  1  0
  5  7  1  0
  5 11  1  0
  8  9  1  0
  8 10  1  0
  8 17  1  0
 11 12  1  0
 11 13  1  0
 11 14  1  0
 14 15  1  0
 14 16  1  0
 14 23  1  0
 17 18  1  0
 17 19  1  0
 17 20  1  0
 20 21  1  0
 20 22  1  0
 20 26  1  0
 23 24  1  0
 23 25  1  0
 23 29  1  0
 26 27  1  0
 26 28  1  0
 26 36  1  0
 29 30  1  0
 29 31  1  0
 29 32  1  0
 32 33  1  0
 32 34  1  0
 32 35  1  0
 36 37  1  0
 36 38  1  0
 36 39  1  0
M  CHG  1   1   1
M  RAD  1   1   2
M  END
$$$$
