
     RDKit          3D

 39 38  0  0  0  0  0  0  0  0999 V2000
    1.1383    0.2722    1.3304 S   0  0  0  0  0  2  0  0  0  0  0  0
    2.3017    0.9690    2.9880 Si  0  0  0  0  0  4  0  0  0  0  0  0
    1.5876    1.9569    3.7956 H   0  0  0  0  0  0  0  0  0  0  0  0
    3.4822    1.6772    2.4134 H   0  0  0  0  0  0  0  0  0  0  0  0
   -0.2733   -1.2070    1.8888 Si  0  0  0  0  0  4  0  0  0  0  0  0
   -0.3359   -2.2134    0.7910 H   0  0  0  0  0  0  0  0  0  0  0  0
    0.0848   -1.9356    3.0985 H   0  0  0  0  0  0  0  0  0  0  0  0
    3.0467   -0.6730    4.2548 Si  0  0  0  0  0  4  0  0  0  0  0  0
    2.6287   -1.9611    3.6305 H   0  0  0  0  0  0  0  0  0  0  0  0
    4.5336   -0.7247    4.2798 H   0  0  0  0  0  0  0  0  0  0  0  0
   -2.3383   -0.3401    2.0517 Si  0  0  0  0  0  4  0  0  0  0  0  0
   -2.9215   -0.0706    0.7541 H   0  0  0  0  0  0  0  0  0  0  0  0
   -3.1916   -1.3464    2.7458 H   0  0  0  0  0  0  0  0  0  0  0  0
   -2.3182    1.4733    3.3702 Si  0  0  0  0  0  4  0  0  0  0  0  0
   -1.0811    2.2158    3.1254 H   0  0  0  0  0  0  0  0  0  0  0  0
   -3.4845    2.2955    2.9924 H   0  0  0  0  0  0  0  0  0  0  0  0
    2.3081   -0.6228    6.3156 Si  0  0  0  0  0  4  0  0  0  0  0  0
    3.2273   -1.3777    7.1954 H   0  0  0  0  0  0  0  0  0  0  0  0
    0.9985   -1.3169    6.3989 H   0  0  0  0  0  0  0  0  0  0  0  0
    2.1057    1.4257    7.1462 Si  0  0  0  0  0  4  0  0  0  0  0  0
    3.4026    1.9121    7.6981 H   0  0  0  0  0  0  0  0  0  0  0  0
    1.6465    2.3992    6.1691 H   0  0  0  0  0  0  0  0  0  0  0  0
   -2.4415    0.8677    5.5350 Si  0  0  0  0  0  4  0  0  0  0  0  0
   -3.6196    1.5558    6.1233 H   0  0  0  0  0  0  0  0  0  0  0  0
   -1.2356    1.3205    6.2339 H   0  0  0  0  0  0  0  0  0  0  0  0
    0.7165    1.2833    8.9036 Si  0  0  0  0  0  4  0  0  0  0  0  0
    1.3796    0.4575    9.9192 H   0  0  0  0  0  0  0  0  0  0  0  0
   -0.5205    0.6301    8.4706 H   0  0  0  0  0  0  0  0  0  0  0  0
   -2.7170   -1.3256    5.6248 Si  0  0  0  0  0  4  0  0  0  0  0  0
   -1.7720   -1.9412    4.6550 H   0  0  0  0  0  0  0  0  0  0  0  0
   -4.0971   -1.6453    5.2856 H   0  0  0  0  0  0  0  0  0  0  0  0
   -2.2521   -2.1538    7.6343 Si  0  0  0  0  0  4  0  0  0  0  0  0
   -2.3934   -3.6209    7.5533 H   0  0  0  0  0  0  0  0  0  0  0  0
   -0.8917   -1.8456    8.0626 H   0  0  0  0  0  0  0  0  0  0  0  0
   -3.2718   -1.6739    8.5761 H   0  0  0  0  0  0  0  0  0  0  0  0
    0.2141    3.3063    9.6843 Si  0  0  0  0  0  4  0  0  0  0  0  0
   -0.3421    4.1040    8.5914 H   0  0  0  0  0  0  0  0  0  0  0  0
   -0.8238    3.1455   10.7099 H   0  0  0  0  0  0  0  0  0  0  0  0
    1.3636    3.9505   10.3285 H   0  0  0  0  0  0  0  0  0  0  0  0
  1  2  1  0
  1  5  1  0
  2  3  1  0
  2  4  1  0
  2  8  1  0
  5  6  1  0
  5  7  1  0
  5 11  1  0
  8  9  1  0
  8 10  1  0
  8 17  1  0
 11 12  1  0
 11 13  1  0
 11 14  1  0
 14 15  1  0
 14 16  1  0
 14 23  1  0
 17 18  1  0
 17 19  1  0
 17 20  1  0
 20 21  1  0
 20 22  1  0
 20 26  1  0
 23 24  1  0
 23 25  1  0
 23 29  1  0
 26 27  1  0
 26 28  1  0
 26 36  1  0
 29 30  1  0
 29 31  1  0
 29 32  1  0
 32 33  1  0
 32 34  1  0
 32 35  1  0
 36 37  1  0
 36 38  1  0
 36 39  1  0
M  CHG  1   1   1
M  RAD  1   1   2
M  END
$$$$

     RDKit          3D

 39 38  0  0  0  0  0  0  0  0999 V2000
    1.1383    0.2722    1.3304 S   0  0  0  0  0  2  0  0  0  0  0  0
   -0.0316   -1.2974    2.1305 Si  0  0  0  0  0  4  0  0  0  0  0  0
    0.5655   -1.9599    3.2686 H   0  0  0  0  0  0  0  0  0  0  0  0
   -0.2083   -2.3277    1.0677 H   0  0  0  0  0  0  0  0  0  0  0  0
    2.8599    0.7126    2.5305 Si  0  0  0  0  0  4  0  0  0  0  0  0
    3.6797    1.6780    1.7401 H   0  0  0  0  0  0  0  0  0  0  0  0
    2.4772    1.4577    3.7611 H   0  0  0  0  0  0  0  0  0  0  0  0
   -2.1002   -0.6101    2.6799 Si  0  0  0  0  0  4  0  0  0  0  0  0
   -2.7859   -1.7056    3.3680 H   0  0  0  0  0  0  0  0  0  0  0  0
   -2.8198   -0.3685    1.4197 H   0  0  0  0  0  0  0  0  0  0  0  0
    4.0937   -1.0529    2.9416 Si  0  0  0  0  0  4  0  0  0  0  0  0
    3.9895   -2.0005    1.8403 H   0  0  0  0  0  0  0  0  0  0  0  0
    5.5144   -0.6407    3.0264 H   0  0  0  0  0  0  0  0  0  0  0  0
    3.5885   -2.0872    4.8314 Si  0  0  0  0  0  4  0  0  0  0  0  0
    4.4728   -3.2809    4.9182 H   0  0  0  0  0  0  0  0  0  0  0  0
    2.2234   -2.5615    4.8964 H   0  0  0  0  0  0  0  0  0  0  0  0
   -2.0115    1.2260    3.9375 Si  0  0  0  0  0  4  0  0  0  0  0  0
   -2.6197    2.3297    3.1685 H   0  0  0  0  0  0  0  0  0  0  0  0
   -0.6174    1.5754    4.2759 H   0  0  0  0  0  0  0  0  0  0  0  0
   -3.1570    0.9624    5.8449 Si  0  0  0  0  0  4  0  0  0  0  0  0
   -2.8262    2.1104    6.7168 H   0  0  0  0  0  0  0  0  0  0  0  0
   -4.5948    0.9223    5.5325 H   0  0  0  0  0  0  0  0  0  0  0  0
    3.9960   -0.8361    6.6212 Si  0  0  0  0  0  4  0  0  0  0  0  0
    5.4043   -0.4043    6.6485 H   0  0  0  0  0  0  0  0  0  0  0  0
    3.8216   -1.7153    7.8127 H   0  0  0  0  0  0  0  0  0  0  0  0
   -2.5549   -0.9419    6.8433 Si  0  0  0  0  0  4  0  0  0  0  0  0
   -1.4165   -1.5278    6.1288 H   0  0  0  0  0  0  0  0  0  0  0  0
   -3.6639   -1.9134    6.8101 H   0  0  0  0  0  0  0  0  0  0  0  0
    2.5792    0.8478    6.8175 Si  0  0  0  0  0  4  0  0  0  0  0  0
    1.4371    0.7441    5.8982 H   0  0  0  0  0  0  0  0  0  0  0  0
    1.9938    0.9055    8.1881 H   0  0  0  0  0  0  0  0  0  0  0  0
    3.6772    2.7857    6.5340 Si  0  0  0  0  0  4  0  0  0  0  0  0
    4.8953    2.4912    5.7887 H   0  0  0  0  0  0  0  0  0  0  0  0
    2.8319    3.6967    5.7466 H   0  0  0  0  0  0  0  0  0  0  0  0
    3.9936    3.4021    7.8404 H   0  0  0  0  0  0  0  0  0  0  0  0
   -1.9197   -0.5450    8.9527 Si  0  0  0  0  0  4  0  0  0  0  0  0
   -2.6358    0.6221    9.4938 H   0  0  0  0  0  0  0  0  0  0  0  0
   -0.4812   -0.2861    8.9704 H   0  0  0  0  0  0  0  0  0  0  0  0
   -2.2230   -1.7478    9.7547 H   0  0  0  0  0  0  0  0  0  0  0  0
  1  2  1  0
  1  5  1  0
  2  3  1  0
  2  4  1  0
  2  8  1  0
  5  6  1  0
  5  7  1  0
  5 11  1  0
  8  9  1  0
  8 10  1  0
  8 17  1  0
 11 12  1  0
 11 13  1  0
 11 14  1  0
 14 15  1  0
 14 16  1  0
 14 23  1  0
 17 18  1  0
 17 19  1  0
 17 20  1  0
 20 21  1  0
 20 22  1  0
 20 26  1  0
 23 24  1  0
 23 25  1  0
 23 29  1  0
 26 27  1  0
 26 28  1  0
 26 36  1  0
 29 30  1  0
 29 31  1  0
 29 32  1  0
 32 33  1  0
 32 34  1  0
 32 35  1  0
 36 37  1  0
 36 38  1  0
 36 39  1  0
M  CHG  1   1   1
M  RAD  1   1   2
M  END
$$$$

     RDKit          3D

 39 38  0  0  0  0  0  0  0  0999 V2000
    1.1383    0.2722    1.3304 S   0  0  0  0  0  2  0  0  0  0  0  0
   -0.1652   -1.1930    2.1220 Si  0  0  0  0  0  4  0  0  0  0  0  0
    0.3713   -1.9122    3.2558 H   0  0  0  0  0  0  0  0  0  0  0  0
   -0.4323   -2.1973    1.0532 H   0  0  0  0  0  0  0  0  0  0  0  0
    2.8922    0.5520    2.5319 Si  0  0  0  0  0  4  0  0  0  0  0  0
    3.7938    1.4460    1.7466 H   0  0  0  0  0  0  0  0  0  0  0  0
    2.5769    1.3206    3.7672 H   0  0  0  0  0  0  0  0  0  0  0  0
   -2.1651   -0.3293    2.6769 Si  0  0  0  0  0  4  0  0  0  0  0  0
   -2.9446   -1.3641    3.3590 H   0  0  0  0  0  0  0  0  0  0  0  0
   -2.8608   -0.0177    1.4187 H   0  0  0  0  0  0  0  0  0  0  0  0
    3.9657   -1.3178    2.9317 Si  0  0  0  0  0  4  0  0  0  0  0  0
    3.7781   -2.2460    1.8249 H   0  0  0  0  0  0  0  0  0  0  0  0
    5.4172   -1.0329    3.0179 H   0  0  0  0  0  0  0  0  0  0  0  0
    3.3716   -2.3147    4.8157 Si  0  0  0  0  0  4  0  0  0  0  0  0
    4.1473   -3.5822    4.8948 H   0  0  0  0  0  0  0  0  0  0  0  0
    1.9700   -2.6673    4.8788 H   0  0  0  0  0  0  0  0  0  0  0  0
   -1.9147    1.4844    3.9453 Si  0  0  0  0  0  4  0  0  0  0  0  0
   -2.4234    2.6419    3.1833 H   0  0  0  0  0  0  0  0  0  0  0  0
   -0.4952    1.7075    4.2848 H   0  0  0  0  0  0  0  0  0  0  0  0
   -3.0787    1.3114    5.8519 Si  0  0  0  0  0  4  0  0  0  0  0  0
   -2.6479    2.4205    6.7303 H   0  0  0  0  0  0  0  0  0  0  0  0
   -4.5145    1.4001    5.5403 H   0  0  0  0  0  0  0  0  0  0  0  0
    3.8881   -1.1152    6.6125 Si  0  0  0  0  0  4  0  0  0  0  0  0
    5.3290   -0.8093    6.6414 H   0  0  0  0  0  0  0  0  0  0  0  0
    3.6371   -1.9826    7.7989 H   0  0  0  0  0  0  0  0  0  0  0  0
   -2.6465   -0.6445    6.8386 Si  0  0  0  0  0  4  0  0  0  0  0  0
   -1.5644   -1.3242    6.1199 H   0  0  0  0  0  0  0  0  0  0  0  0
   -3.8369   -1.5143    6.8004 H   0  0  0  0  0  0  0  0  0  0  0  0
    2.6253    0.6859    6.8198 Si  0  0  0  0  0  4  0  0  0  0  0  0
    1.4783    0.6887    5.9007 H   0  0  0  0  0  0  0  0  0  0  0  0
    2.0475    0.7868    8.1911 H   0  0  0  0  0  0  0  0  0  0  0  0
    3.8898    2.5211    6.5470 Si  0  0  0  0  0  4  0  0  0  0  0  0
    5.0770    2.1248    5.7992 H   0  0  0  0  0  0  0  0  0  0  0  0
    3.1279    3.5077    5.7656 H   0  0  0  0  0  0  0  0  0  0  0  0
    4.2594    3.0994    7.8568 H   0  0  0  0  0  0  0  0  0  0  0  0
   -1.9785   -0.3177    8.9499 Si  0  0  0  0  0  4  0  0  0  0  0  0
   -2.5889    0.9047    9.4983 H   0  0  0  0  0  0  0  0  0  0  0  0
   -0.5227   -0.1866    8.9681 H   0  0  0  0  0  0  0  0  0  0  0  0
   -2.3865   -1.4938    9.7450 H   0  0  0  0  0  0  0  0  0  0  0  0
  1  2  1  0
  1  5  1  0
  2  3  1  0
  2  4  1  0
  2  8  1  0
  5  6  1  0
  5  7  1  0
  5 11  1  0
  8  9  1  0
  8 10  1  0
  8 17  1  0
 11 12  1  0
 11 13  1  0
 11 14  1  0
 14 15  1  0
 14 16  1  0
 14 23  1  0
 17 18  1  0
 17 19  1  0
 17 20  1  0
 20 21  1  0
 20 22  1  0
 20 26  1  0
 23 24  1  0
 23 25  1  0
 23 29  1  0
 26 27  1  0
 26 28  1  0
 26 36  1  0
 29 30  1  0
 29 31  1  0
 29 32  1  0
 32 33  1  0
 32 34  1  0
 32 35  1  0
 36 37  1  0
 36 38  1  0
 36 39  1  0
M  CHG  1   1   1
M  RAD  1   1   2
M  END
$$$$
