
     RDKit          3D

 39 38  0  0  0  0  0  0  0  0999 V2000
   -0.1043    0.0998   -3.1973 S   0  0  0  0  0  2  0  0  0  0  0  0
   -1.2488   -1.2659   -4.3817 Si  0  0  0  0  0  4  0  0  0  0  0  0
   -0.6723   -1.4988   -5.6953 H   0  0  0  0  0  0  0  0  0  0  0  0
   -1.2530   -2.5636   -3.6690 H   0  0  0  0  0  0  0  0  0  0  0  0
    0.0057    2.0338   -4.0733 Si  0  0  0  0  0  4  0  0  0  0  0  0
   -0.0817    3.0306   -2.9679 H   0  0  0  0  0  0  0  0  0  0  0  0
   -1.1516    2.3237   -4.9511 H   0  0  0  0  0  0  0  0  0  0  0  0
   -3.3556   -0.6168   -4.6136 Si  0  0  0  0  0  4  0  0  0  0  0  0
   -3.8283    0.0487   -3.4014 H   0  0  0  0  0  0  0  0  0  0  0  0
   -4.2035   -1.8280   -4.7858 H   0  0  0  0  0  0  0  0  0  0  0  0
    1.9357    2.3213   -5.1911 Si  0  0  0  0  0  4  0  0  0  0  0  0
    2.4417    3.6820   -4.8511 H   0  0  0  0  0  0  0  0  0  0  0  0
    1.7233    2.3104   -6.6350 H   0  0  0  0  0  0  0  0  0  0  0  0
    3.4543    0.8587   -4.5191 Si  0  0  0  0  0  4  0  0  0  0  0  0
    2.9316    0.1900   -3.2933 H   0  0  0  0  0  0  0  0  0  0  0  0
    4.7073    1.5351   -4.0775 H   0  0  0  0  0  0  0  0  0  0  0  0
   -3.6331    0.6328   -6.4367 Si  0  0  0  0  0  4  0  0  0  0  0  0
   -4.0051    1.9919   -5.9834 H   0  0  0  0  0  0  0  0  0  0  0  0
   -2.3927    0.7519   -7.2136 H   0  0  0  0  0  0  0  0  0  0  0  0
   -5.2997   -0.1202   -7.7085 Si  0  0  0  0  0  4  0  0  0  0  0  0
   -6.4861   -0.2687   -6.8351 H   0  0  0  0  0  0  0  0  0  0  0  0
   -5.5925    0.8730   -8.7383 H   0  0  0  0  0  0  0  0  0  0  0  0
    3.8811   -0.7030   -6.0142 Si  0  0  0  0  0  4  0  0  0  0  0  0
    5.3507   -0.8879   -6.0922 H   0  0  0  0  0  0  0  0  0  0  0  0
    3.3108   -2.0072   -5.6671 H   0  0  0  0  0  0  0  0  0  0  0  0
   -4.8393   -2.0831   -8.6175 Si  0  0  0  0  0  4  0  0  0  0  0  0
   -5.5836   -2.2418   -9.8794 H   0  0  0  0  0  0  0  0  0  0  0  0
   -5.2637   -3.1941   -7.7394 H   0  0  0  0  0  0  0  0  0  0  0  0
    3.1735   -0.1631   -8.0511 Si  0  0  0  0  0  4  0  0  0  0  0  0
    3.6718   -1.2149   -8.9798 H   0  0  0  0  0  0  0  0  0  0  0  0
    3.7414    1.1073   -8.5200 H   0  0  0  0  0  0  0  0  0  0  0  0
    0.9701   -0.1209   -8.2039 Si  0  0  0  0  0  4  0  0  0  0  0  0
    0.4940   -1.5253   -8.3619 H   0  0  0  0  0  0  0  0  0  0  0  0
    0.6000    0.5970   -9.4337 H   0  0  0  0  0  0  0  0  0  0  0  0
    0.3103    0.4079   -7.0171 H   0  0  0  0  0  0  0  0  0  0  0  0
   -2.6790   -2.3308   -9.0670 Si  0  0  0  0  0  4  0  0  0  0  0  0
   -1.9201   -2.6255   -7.8544 H   0  0  0  0  0  0  0  0  0  0  0  0
   -2.1958   -1.1497   -9.7790 H   0  0  0  0  0  0  0  0  0  0  0  0
   -2.5164   -3.4863   -9.9716 H   0  0  0  0  0  0  0  0  0  0  0  0
  1  2  1  0
  1  5  1  0
  2  3  1  0
  2  4  1  0
  2  8  1  0
  5  6  1  0
  5  7  1  0
  5 11  1  0
  8  9  1  0
  8 10  1  0
  8 17  1  0
 11 12  1  0
 11 13  1  0
 11 14  1  0
 14 15  1  0
 14 16  1  0
 14 23  1  0
 17 18  1  0
 17 19  1  0
 17 20  1  0
 20 21  1  0
 20 22  1  0
 20 26  1  0
 23 24  1  0
 23 25  1  0
 23 29  1  0
 26 27  1  0
 26 28  1  0
 26 36  1  0
 29 30  1  0
 29 31  1  0
 29 32  1  0
 32 33  1  0
 32 34  1  0
 32 35  1  0
 36 37  1  0
 36 38  1  0
 36 39  1  0
M  CHG  1   1   1
M  RAD  1   1   2
M  END
$$$$

     RDKit          3D

 39 38  0  0  0  0  0  0  0  0999 V2000
   -0.1043    0.0998   -3.1973 S   0  0  0  0  0  2  0  0  0  0  0  0
    0.4837   -1.5776   -4.3687 Si  0  0  0  0  0  4  0  0  0  0  0  0
    1.5696   -2.2762   -3.6374 H   0  0  0  0  0  0  0  0  0  0  0  0
    1.0774   -1.1310   -5.6570 H   0  0  0  0  0  0  0  0  0  0  0  0
    0.9382    1.8928   -3.7997 Si  0  0  0  0  0  4  0  0  0  0  0  0
   -0.0895    2.8739   -4.1784 H   0  0  0  0  0  0  0  0  0  0  0  0
    1.7307    2.4002   -2.6750 H   0  0  0  0  0  0  0  0  0  0  0  0
   -1.1729   -3.0051   -4.7145 Si  0  0  0  0  0  4  0  0  0  0  0  0
   -0.7608   -3.9787   -5.7223 H   0  0  0  0  0  0  0  0  0  0  0  0
   -1.3926   -3.7529   -3.4558 H   0  0  0  0  0  0  0  0  0  0  0  0
    2.2350    1.3604   -5.5224 Si  0  0  0  0  0  4  0  0  0  0  0  0
    3.1852    0.3233   -5.0628 H   0  0  0  0  0  0  0  0  0  0  0  0
    1.3799    0.7047   -6.5403 H   0  0  0  0  0  0  0  0  0  0  0  0
    3.2517    3.1062   -6.4042 Si  0  0  0  0  0  4  0  0  0  0  0  0
    2.9643    4.3550   -5.7228 H   0  0  0  0  0  0  0  0  0  0  0  0
    2.8427    3.2765   -7.8237 H   0  0  0  0  0  0  0  0  0  0  0  0
   -3.0804   -1.9874   -5.2262 Si  0  0  0  0  0  4  0  0  0  0  0  0
   -4.0865   -2.9953   -5.5104 H   0  0  0  0  0  0  0  0  0  0  0  0
   -3.5214   -1.2308   -4.0441 H   0  0  0  0  0  0  0  0  0  0  0  0
   -2.8498   -0.5632   -6.9117 Si  0  0  0  0  0  4  0  0  0  0  0  0
   -2.1443    0.6571   -6.4536 H   0  0  0  0  0  0  0  0  0  0  0  0
   -4.1996   -0.1254   -7.3199 H   0  0  0  0  0  0  0  0  0  0  0  0
    5.4624    2.6680   -6.4344 Si  0  0  0  0  0  4  0  0  0  0  0  0
    5.8099    1.8965   -7.6290 H   0  0  0  0  0  0  0  0  0  0  0  0
    6.2278    3.9126   -6.3501 H   0  0  0  0  0  0  0  0  0  0  0  0
   -1.8660   -1.4782   -8.6719 Si  0  0  0  0  0  4  0  0  0  0  0  0
   -2.7850   -1.5308   -9.8435 H   0  0  0  0  0  0  0  0  0  0  0  0
   -1.4066   -2.8337   -8.4358 H   0  0  0  0  0  0  0  0  0  0  0  0
    5.8743    1.3411   -4.6628 Si  0  0  0  0  0  4  0  0  0  0  0  0
    4.8011    1.5051   -3.6466 H   0  0  0  0  0  0  0  0  0  0  0  0
    7.1600    1.6683   -4.0470 H   0  0  0  0  0  0  0  0  0  0  0  0
    5.8219   -0.8012   -5.3183 Si  0  0  0  0  0  4  0  0  0  0  0  0
    4.7925   -0.9791   -6.3573 H   0  0  0  0  0  0  0  0  0  0  0  0
    7.1403   -1.1660   -5.8487 H   0  0  0  0  0  0  0  0  0  0  0  0
    5.4600   -1.6899   -4.1986 H   0  0  0  0  0  0  0  0  0  0  0  0
   -0.1128   -0.2257   -9.3324 Si  0  0  0  0  0  4  0  0  0  0  0  0
    0.0069   -0.2325  -10.7884 H   0  0  0  0  0  0  0  0  0  0  0  0
   -0.3309    1.1472   -8.8108 H   0  0  0  0  0  0  0  0  0  0  0  0
    1.0907   -0.7553   -8.6639 H   0  0  0  0  0  0  0  0  0  0  0  0
  1  2  1  0
  1  5  1  0
  2  3  1  0
  2  4  1  0
  2  8  1  0
  5  6  1  0
  5  7  1  0
  5 11  1  0
  8  9  1  0
  8 10  1  0
  8 17  1  0
 11 12  1  0
 11 13  1  0
 11 14  1  0
 14 15  1  0
 14 16  1  0
 14 23  1  0
 17 18  1  0
 17 19  1  0
 17 20  1  0
 20 21  1  0
 20 22  1  0
 20 26  1  0
 23 24  1  0
 23 25  1  0
 23 29  1  0
 26 27  1  0
 26 28  1  0
 26 36  1  0
 29 30  1  0
 29 31  1  0
 29 32  1  0
 32 33  1  0
 32 34  1  0
 32 35  1  0
 36 37  1  0
 36 38  1  0
 36 39  1  0
M  CHG  1   1   1
M  RAD  1   1   2
M  END
$$$$
