
     RDKit          3D

 39 38  0  0  0  0  0  0  0  0999 V2000
   -0.0008    0.0008   -3.1955 S   0  0  0  0  0  2  0  0  0  0  0  0
   -1.1101   -1.3181   -4.4321 Si  0  0  0  0  0  4  0  0  0  0  0  0
   -1.0584   -2.6723   -3.8121 H   0  0  0  0  0  0  0  0  0  0  0  0
   -0.5244   -1.4450   -5.7607 H   0  0  0  0  0  0  0  0  0  0  0  0
   -0.4810    2.0414   -3.4888 Si  0  0  0  0  0  4  0  0  0  0  0  0
   -0.4890    2.7090   -2.1593 H   0  0  0  0  0  0  0  0  0  0  0  0
   -1.7601    2.2452   -4.1657 H   0  0  0  0  0  0  0  0  0  0  0  0
   -3.2356   -0.7505   -4.6308 Si  0  0  0  0  0  4  0  0  0  0  0  0
   -4.0441   -1.9911   -4.7943 H   0  0  0  0  0  0  0  0  0  0  0  0
   -3.7554   -0.0756   -3.4432 H   0  0  0  0  0  0  0  0  0  0  0  0
    1.1410    3.0684   -4.6729 Si  0  0  0  0  0  4  0  0  0  0  0  0
    0.8471    4.4818   -4.8220 H   0  0  0  0  0  0  0  0  0  0  0  0
    2.4450    2.8217   -4.0597 H   0  0  0  0  0  0  0  0  0  0  0  0
    1.1534    2.0921   -6.7041 Si  0  0  0  0  0  4  0  0  0  0  0  0
   -0.2420    1.8196   -7.0461 H   0  0  0  0  0  0  0  0  0  0  0  0
    1.7563    2.9744   -7.6942 H   0  0  0  0  0  0  0  0  0  0  0  0
   -3.5986    0.4667   -6.4883 Si  0  0  0  0  0  4  0  0  0  0  0  0
   -5.0316    0.4100   -6.8554 H   0  0  0  0  0  0  0  0  0  0  0  0
   -3.1633    1.8310   -6.2119 H   0  0  0  0  0  0  0  0  0  0  0  0
   -2.4360   -0.3821   -8.1756 Si  0  0  0  0  0  4  0  0  0  0  0  0
   -3.1444   -1.5396   -8.7694 H   0  0  0  0  0  0  0  0  0  0  0  0
   -1.1727   -0.9221   -7.6248 H   0  0  0  0  0  0  0  0  0  0  0  0
    2.2619    0.1582   -6.5090 Si  0  0  0  0  0  4  0  0  0  0  0  0
    1.4553   -0.9575   -7.0540 H   0  0  0  0  0  0  0  0  0  0  0  0
    2.5801   -0.1421   -5.1043 H   0  0  0  0  0  0  0  0  0  0  0  0
   -2.0098    1.1391   -9.7485 Si  0  0  0  0  0  4  0  0  0  0  0  0
   -2.5716    0.7554  -11.0434 H   0  0  0  0  0  0  0  0  0  0  0  0
   -0.5328    1.2989   -9.8606 H   0  0  0  0  0  0  0  0  0  0  0  0
    4.1626    0.3481   -7.6711 Si  0  0  0  0  0  4  0  0  0  0  0  0
    3.8212    0.1959   -9.1011 H   0  0  0  0  0  0  0  0  0  0  0  0
    5.1196   -0.7054   -7.3150 H   0  0  0  0  0  0  0  0  0  0  0  0
    5.0393    2.3751   -7.3975 Si  0  0  0  0  0  4  0  0  0  0  0  0
    6.4277    2.3283   -7.9099 H   0  0  0  0  0  0  0  0  0  0  0  0
    5.1190    2.7505   -5.9765 H   0  0  0  0  0  0  0  0  0  0  0  0
    4.2654    3.3704   -8.1350 H   0  0  0  0  0  0  0  0  0  0  0  0
   -2.8036    3.1133   -9.0489 Si  0  0  0  0  0  4  0  0  0  0  0  0
   -4.2252    3.2483   -9.3343 H   0  0  0  0  0  0  0  0  0  0  0  0
   -2.0418    4.2103   -9.6757 H   0  0  0  0  0  0  0  0  0  0  0  0
   -2.5839    3.2192   -7.5915 H   0  0  0  0  0  0  0  0  0  0  0  0
  1  2  1  0
  1  5  1  0
  2  3  1  0
  2  4  1  0
  2  8  1  0
  5  6  1  0
  5  7  1  0
  5 11  1  0
  8  9  1  0
  8 10  1  0
  8 17  1  0
 11 12  1  0
 11 13  1  0
 11 14  1  0
 14 15  1  0
 14 16  1  0
 14 23  1  0
 17 18  1  0
 17 19  1  0
 17 20  1  0
 20 21  1  0
 20 22  1  0
 20 26  1  0
 23 24  1  0
 23 25  1  0
 23 29  1  0
 26 27  1  0
 26 28  1  0
 26 36  1  0
 29 30  1  0
 29 31  1  0
 29 32  1  0
 32 33  1  0
 32 34  1  0
 32 35  1  0
 36 37  1  0
 36 38  1  0
 36 39  1  0
M  CHG  1   1   1
M  RAD  1   1   2
M  END
$$$$

     RDKit          3D

 39 38  0  0  0  0  0  0  0  0999 V2000
   -0.0008    0.0008   -3.1955 S   0  0  0  0  0  2  0  0  0  0  0  0
    0.7921    1.7945   -4.0929 Si  0  0  0  0  0  4  0  0  0  0  0  0
   -0.2231    2.8590   -3.8478 H   0  0  0  0  0  0  0  0  0  0  0  0
    2.0424    2.2063   -3.4752 H   0  0  0  0  0  0  0  0  0  0  0  0
    0.4446   -1.7226   -4.3808 Si  0  0  0  0  0  4  0  0  0  0  0  0
    0.9233   -2.7786   -3.4449 H   0  0  0  0  0  0  0  0  0  0  0  0
    1.5677   -1.4600   -5.2972 H   0  0  0  0  0  0  0  0  0  0  0  0
    0.9458    1.5317   -6.2921 Si  0  0  0  0  0  4  0  0  0  0  0  0
    0.0695    0.4045   -6.6712 H   0  0  0  0  0  0  0  0  0  0  0  0
    0.4410    2.7090   -7.0311 H   0  0  0  0  0  0  0  0  0  0  0  0
   -1.3506   -2.4725   -5.4648 Si  0  0  0  0  0  4  0  0  0  0  0  0
   -2.5103   -1.6033   -5.1632 H   0  0  0  0  0  0  0  0  0  0  0  0
   -1.6651   -3.8515   -5.0230 H   0  0  0  0  0  0  0  0  0  0  0  0
   -0.9893   -2.5546   -7.6762 Si  0  0  0  0  0  4  0  0  0  0  0  0
    0.2824   -1.8245   -7.9450 H   0  0  0  0  0  0  0  0  0  0  0  0
   -0.8185   -3.9142   -8.1537 H   0  0  0  0  0  0  0  0  0  0  0  0
    3.0137    1.0100   -6.9316 Si  0  0  0  0  0  4  0  0  0  0  0  0
    4.0333    1.7709   -6.2380 H   0  0  0  0  0  0  0  0  0  0  0  0
    3.2494   -0.4443   -6.8009 H   0  0  0  0  0  0  0  0  0  0  0  0
    3.1627    1.4805   -9.1320 Si  0  0  0  0  0  4  0  0  0  0  0  0
    2.2124    0.5708   -9.8081 H   0  0  0  0  0  0  0  0  0  0  0  0
    4.5124    1.2473   -9.6143 H   0  0  0  0  0  0  0  0  0  0  0  0
   -2.6026   -1.4639   -8.7510 Si  0  0  0  0  0  4  0  0  0  0  0  0
   -2.8661   -2.1655  -10.0276 H   0  0  0  0  0  0  0  0  0  0  0  0
   -3.8310   -1.4782   -7.9470 H   0  0  0  0  0  0  0  0  0  0  0  0
    2.5015    3.5950   -9.4222 Si  0  0  0  0  0  4  0  0  0  0  0  0
    1.1947    3.6252  -10.0959 H   0  0  0  0  0  0  0  0  0  0  0  0
    3.4755    4.2687  -10.2792 H   0  0  0  0  0  0  0  0  0  0  0  0
   -2.0387    0.6372   -9.1991 Si  0  0  0  0  0  4  0  0  0  0  0  0
   -0.5616    0.8126   -9.2160 H   0  0  0  0  0  0  0  0  0  0  0  0
   -2.5238    1.0162  -10.5299 H   0  0  0  0  0  0  0  0  0  0  0  0
   -2.9752    2.0448   -7.7203 Si  0  0  0  0  0  4  0  0  0  0  0  0
   -3.2959    1.3484   -6.4595 H   0  0  0  0  0  0  0  0  0  0  0  0
   -4.1774    2.6672   -8.2855 H   0  0  0  0  0  0  0  0  0  0  0  0
   -1.9570    3.0635   -7.3924 H   0  0  0  0  0  0  0  0  0  0  0  0
    2.3813    4.6868   -7.4883 Si  0  0  0  0  0  4  0  0  0  0  0  0
    3.1760    5.9335   -7.5072 H   0  0  0  0  0  0  0  0  0  0  0  0
    2.8546    3.7734   -6.4310 H   0  0  0  0  0  0  0  0  0  0  0  0
    0.9978    5.0782   -7.1573 H   0  0  0  0  0  0  0  0  0  0  0  0
  1  2  1  0
  1  5  1  0
  2  3  1  0
  2  4  1  0
  2  8  1  0
  5  6  1  0
  5  7  1  0
  5 11  1  0
  8  9  1  0
  8 10  1  0
  8 17  1  0
 11 12  1  0
 11 13  1  0
 11 14  1  0
 14 15  1  0
 14 16  1  0
 14 23  1  0
 17 18  1  0
 17 19  1  0
 17 20  1  0
 20 21  1  0
 20 22  1  0
 20 26  1  0
 23 24  1  0
 23 25  1  0
 23 29  1  0
 26 27  1  0
 26 28  1  0
 26 36  1  0
 29 30  1  0
 29 31  1  0
 29 32  1  0
 32 33  1  0
 32 34  1  0
 32 35  1  0
 36 37  1  0
 36 38  1  0
 36 39  1  0
M  CHG  1   1   1
M  RAD  1   1   2
M  END
$$$$

     RDKit          3D

 39 38  0  0  0  0  0  0  0  0999 V2000
   -0.0008    0.0008   -3.1955 S   0  0  0  0  0  2  0  0  0  0  0  0
    0.9171    1.7339   -4.0930 Si  0  0  0  0  0  4  0  0  0  0  0  0
   -0.0203    2.8675   -3.8478 H   0  0  0  0  0  0  0  0  0  0  0  0
    2.1934    2.0562   -3.4753 H   0  0  0  0  0  0  0  0  0  0  0  0
    0.3215   -1.7498   -4.3807 Si  0  0  0  0  0  4  0  0  0  0  0  0
    0.7243   -2.8370   -3.4449 H   0  0  0  0  0  0  0  0  0  0  0  0
    1.4604   -1.5674   -5.2972 H   0  0  0  0  0  0  0  0  0  0  0  0
    1.0517    1.4608   -6.2921 Si  0  0  0  0  0  4  0  0  0  0  0  0
    0.0979    0.3985   -6.6712 H   0  0  0  0  0  0  0  0  0  0  0  0
    0.6315    2.6709   -7.0311 H   0  0  0  0  0  0  0  0  0  0  0  0
   -1.5222   -2.3708   -5.4647 Si  0  0  0  0  0  4  0  0  0  0  0  0
   -2.6175   -1.4218   -5.1631 H   0  0  0  0  0  0  0  0  0  0  0  0
   -1.9335   -3.7241   -5.0229 H   0  0  0  0  0  0  0  0  0  0  0  0
   -1.1677   -2.4784   -7.6761 Si  0  0  0  0  0  4  0  0  0  0  0  0
    0.1525   -1.8401   -7.9450 H   0  0  0  0  0  0  0  0  0  0  0  0
   -1.0935   -3.8467   -8.1536 H   0  0  0  0  0  0  0  0  0  0  0  0
    3.0776    0.7941   -6.9316 Si  0  0  0  0  0  4  0  0  0  0  0  0
    4.1484    1.4810   -6.2381 H   0  0  0  0  0  0  0  0  0  0  0  0
    3.2098   -0.6732   -6.8008 H   0  0  0  0  0  0  0  0  0  0  0  0
    3.2594    1.2529   -9.1321 Si  0  0  0  0  0  4  0  0  0  0  0  0
    2.2471    0.4127   -9.8082 H   0  0  0  0  0  0  0  0  0  0  0  0
    4.5893    0.9247   -9.6143 H   0  0  0  0  0  0  0  0  0  0  0  0
   -2.6997   -1.2762   -8.7510 Si  0  0  0  0  0  4  0  0  0  0  0  0
   -3.0122   -1.9574  -10.0276 H   0  0  0  0  0  0  0  0  0  0  0  0
   -3.9260   -1.2036   -7.9470 H   0  0  0  0  0  0  0  0  0  0  0  0
    2.7495    3.4088   -9.4223 Si  0  0  0  0  0  4  0  0  0  0  0  0
    1.4482    3.5314  -10.0959 H   0  0  0  0  0  0  0  0  0  0  0  0
    3.7688    4.0119  -10.2792 H   0  0  0  0  0  0  0  0  0  0  0  0
   -1.9885    0.7797   -9.1991 Si  0  0  0  0  0  4  0  0  0  0  0  0
   -0.5028    0.8501   -9.2161 H   0  0  0  0  0  0  0  0  0  0  0  0
   -2.4457    1.1920  -10.5299 H   0  0  0  0  0  0  0  0  0  0  0  0
   -2.8232    2.2501   -7.7203 Si  0  0  0  0  0  4  0  0  0  0  0  0
   -3.1923    1.5781   -6.4595 H   0  0  0  0  0  0  0  0  0  0  0  0
   -3.9783    2.9559   -8.2855 H   0  0  0  0  0  0  0  0  0  0  0  0
   -1.7354    3.1941   -7.3924 H   0  0  0  0  0  0  0  0  0  0  0  0
    2.7068    4.5064   -7.4884 Si  0  0  0  0  0  4  0  0  0  0  0  0
    3.5878    5.6938   -7.5073 H   0  0  0  0  0  0  0  0  0  0  0  0
    3.1143    3.5619   -6.4311 H   0  0  0  0  0  0  0  0  0  0  0  0
    1.3545    4.9948   -7.1574 H   0  0  0  0  0  0  0  0  0  0  0  0
  1  2  1  0
  1  5  1  0
  2  3  1  0
  2  4  1  0
  2  8  1  0
  5  6  1  0
  5  7  1  0
  5 11  1  0
  8  9  1  0
  8 10  1  0
  8 17  1  0
 11 12  1  0
 11 13  1  0
 11 14  1  0
 14 15  1  0
 14 16  1  0
 14 23  1  0
 17 18  1  0
 17 19  1  0
 17 20  1  0
 20 21  1  0
 20 22  1  0
 20 26  1  0
 23 24  1  0
 23 25  1  0
 23 29  1  0
 26 27  1  0
 26 28  1  0
 26 36  1  0
 29 30  1  0
 29 31  1  0
 29 32  1  0
 32 33  1  0
 32 34  1  0
 32 35  1  0
 36 37  1  0
 36 38  1  0
 36 39  1  0
M  CHG  1   1   1
M  RAD  1   1   2
M  END
$$$$

     RDKit          3D

 39 38  0  0  0  0  0  0  0  0999 V2000
   -0.0008    0.0008   -3.1955 S   0  0  0  0  0  2  0  0  0  0  0  0
   -1.8058   -0.7669   -4.0922 Si  0  0  0  0  0  4  0  0  0  0  0  0
   -1.7918   -2.2378   -3.8473 H   0  0  0  0  0  0  0  0  0  0  0  0
   -2.9998   -0.2134   -3.4737 H   0  0  0  0  0  0  0  0  0  0  0  0
    0.8510    1.5637   -4.3809 Si  0  0  0  0  0  4  0  0  0  0  0  0
    1.2235    2.6616   -3.4450 H   0  0  0  0  0  0  0  0  0  0  0  0
   -0.1489    2.1396   -5.2967 H   0  0  0  0  0  0  0  0  0  0  0  0
   -1.7395   -0.4696   -6.2913 Si  0  0  0  0  0  4  0  0  0  0  0  0
   -0.3297   -0.2452   -6.6711 H   0  0  0  0  0  0  0  0  0  0  0  0
   -2.1758   -1.6740   -7.0303 H   0  0  0  0  0  0  0  0  0  0  0  0
    2.6736    0.8849   -5.4660 Si  0  0  0  0  0  4  0  0  0  0  0  0
    2.9266   -0.5422   -5.1648 H   0  0  0  0  0  0  0  0  0  0  0  0
    3.8457    1.6767   -5.0246 H   0  0  0  0  0  0  0  0  0  0  0  0
    2.4648    1.1921   -7.6772 Si  0  0  0  0  0  4  0  0  0  0  0  0
    1.0373    1.5280   -7.9452 H   0  0  0  0  0  0  0  0  0  0  0  0
    3.2688    2.3016   -8.1549 H   0  0  0  0  0  0  0  0  0  0  0  0
   -2.8933    1.3245   -6.9299 Si  0  0  0  0  0  4  0  0  0  0  0  0
   -4.1573    1.4654   -6.2356 H   0  0  0  0  0  0  0  0  0  0  0  0
   -2.0717    2.5473   -6.7993 H   0  0  0  0  0  0  0  0  0  0  0  0
   -3.3246    1.0831   -9.1301 Si  0  0  0  0  0  4  0  0  0  0  0  0
   -2.0096    1.0981   -9.8069 H   0  0  0  0  0  0  0  0  0  0  0  0
   -4.1511    2.1758   -9.6118 H   0  0  0  0  0  0  0  0  0  0  0  0
    2.8969   -0.7064   -8.7526 Si  0  0  0  0  0  4  0  0  0  0  0  0
    3.5680   -0.3740  -10.0295 H   0  0  0  0  0  0  0  0  0  0  0  0
    3.8040   -1.5354   -7.9492 H   0  0  0  0  0  0  0  0  0  0  0  0
   -4.2869   -0.9125   -9.4202 Si  0  0  0  0  0  4  0  0  0  0  0  0
   -3.3537   -1.8273  -10.0945 H   0  0  0  0  0  0  0  0  0  0  0  0
   -5.4588   -0.7387  -10.2765 H   0  0  0  0  0  0  0  0  0  0  0  0
    1.0493   -1.8551   -9.2000 Si  0  0  0  0  0  4  0  0  0  0  0  0
   -0.1490   -0.9739   -9.2162 H   0  0  0  0  0  0  0  0  0  0  0  0
    1.1439   -2.4630  -10.5309 H   0  0  0  0  0  0  0  0  0  0  0  0
    0.7721   -3.5231   -7.7214 Si  0  0  0  0  0  4  0  0  0  0  0  0
    1.4827   -3.2340   -6.4609 H   0  0  0  0  0  0  0  0  0  0  0  0
    1.2243   -4.7989   -8.2870 H   0  0  0  0  0  0  0  0  0  0  0  0
   -0.6672   -3.5712   -7.3927 H   0  0  0  0  0  0  0  0  0  0  0  0
   -4.9441   -1.7922   -7.4861 Si  0  0  0  0  0  4  0  0  0  0  0  0
   -6.3762   -2.1595   -7.5044 H   0  0  0  0  0  0  0  0  0  0  0  0
   -4.6650   -0.8021   -6.4288 H   0  0  0  0  0  0  0  0  0  0  0  0
   -4.2012   -3.0234   -7.1558 H   0  0  0  0  0  0  0  0  0  0  0  0
  1  2  1  0
  1  5  1  0
  2  3  1  0
  2  4  1  0
  2  8  1  0
  5  6  1  0
  5  7  1  0
  5 11  1  0
  8  9  1  0
  8 10  1  0
  8 17  1  0
 11 12  1  0
 11 13  1  0
 11 14  1  0
 14 15  1  0
 14 16  1  0
 14 23  1  0
 17 18  1  0
 17 19  1  0
 17 20  1  0
 20 21  1  0
 20 22  1  0
 20 26  1  0
 23 24  1  0
 23 25  1  0
 23 29  1  0
 26 27  1  0
 26 28  1  0
 26 36  1  0
 29 30  1  0
 29 31  1  0
 29 32  1  0
 32 33  1  0
 32 34  1  0
 32 35  1  0
 36 37  1  0
 36 38  1  0
 36 39  1  0
M  CHG  1   1   1
M  RAD  1   1   2
M  END
$$$$

     RDKit          3D

 39 38  0  0  0  0  0  0  0  0999 V2000
   -0.0008    0.0008   -3.1955 S   0  0  0  0  0  2  0  0  0  0  0  0
   -1.9387    0.3043   -4.0921 Si  0  0  0  0  0  4  0  0  0  0  0  0
   -2.7050   -0.9513   -3.8471 H   0  0  0  0  0  0  0  0  0  0  0  0
   -2.6589    1.4058   -3.4738 H   0  0  0  0  0  0  0  0  0  0  0  0
    1.5489    0.8761   -4.3811 Si  0  0  0  0  0  4  0  0  0  0  0  0
    2.4459    1.6108   -3.4454 H   0  0  0  0  0  0  0  0  0  0  0  0
    1.0051    1.8937   -5.2971 H   0  0  0  0  0  0  0  0  0  0  0  0
   -1.7252    0.5211   -6.2913 Si  0  0  0  0  0  4  0  0  0  0  0  0
   -0.4103   -0.0345   -6.6711 H   0  0  0  0  0  0  0  0  0  0  0  0
   -2.7327   -0.2701   -7.0302 H   0  0  0  0  0  0  0  0  0  0  0  0
    2.7362   -0.6644   -5.4660 Si  0  0  0  0  0  4  0  0  0  0  0  0
    2.1959   -2.0092   -5.1645 H   0  0  0  0  0  0  0  0  0  0  0  0
    4.1498   -0.6126   -5.0247 H   0  0  0  0  0  0  0  0  0  0  0  0
    2.7215   -0.2936   -7.6773 Si  0  0  0  0  0  4  0  0  0  0  0  0
    1.6879    0.7467   -7.9454 H   0  0  0  0  0  0  0  0  0  0  0  0
    3.9908    0.2224   -8.1551 H   0  0  0  0  0  0  0  0  0  0  0  0
   -1.7550    2.6539   -6.9302 Si  0  0  0  0  0  4  0  0  0  0  0  0
   -2.7530    3.4424   -6.2360 H   0  0  0  0  0  0  0  0  0  0  0  0
   -0.4108    3.2568   -6.7998 H   0  0  0  0  0  0  0  0  0  0  0  0
   -2.2489    2.6770   -9.1304 Si  0  0  0  0  0  4  0  0  0  0  0  0
   -1.1250    1.9938   -9.8072 H   0  0  0  0  0  0  0  0  0  0  0  0
   -2.3720    4.0413   -9.6123 H   0  0  0  0  0  0  0  0  0  0  0  0
    2.0836   -2.1334   -8.7524 Si  0  0  0  0  0  4  0  0  0  0  0  0
    2.8290   -2.2066  -10.0293 H   0  0  0  0  0  0  0  0  0  0  0  0
    2.4148   -3.3167   -7.9488 H   0  0  0  0  0  0  0  0  0  0  0  0
   -4.1212    1.4927   -9.4203 Si  0  0  0  0  0  4  0  0  0  0  0  0
   -3.8135    0.2225  -10.0944 H   0  0  0  0  0  0  0  0  0  0  0  0
   -5.0238    2.2601  -10.2767 H   0  0  0  0  0  0  0  0  0  0  0  0
   -0.0920   -2.1306   -9.1997 Si  0  0  0  0  0  4  0  0  0  0  0  0
   -0.6426   -0.7488   -9.2160 H   0  0  0  0  0  0  0  0  0  0  0  0
   -0.3334   -2.6967  -10.5305 H   0  0  0  0  0  0  0  0  0  0  0  0
   -1.2097   -3.3991   -7.7208 Si  0  0  0  0  0  4  0  0  0  0  0  0
   -0.4537   -3.5295   -6.4603 H   0  0  0  0  0  0  0  0  0  0  0  0
   -1.5010   -4.7210   -8.2862 H   0  0  0  0  0  0  0  0  0  0  0  0
   -2.4565   -2.6783   -7.3922 H   0  0  0  0  0  0  0  0  0  0  0  0
   -5.1443    1.0942   -7.4861 Si  0  0  0  0  0  4  0  0  0  0  0  0
   -6.5539    1.5403   -7.5043 H   0  0  0  0  0  0  0  0  0  0  0  0
   -4.3836    1.7869   -6.4289 H   0  0  0  0  0  0  0  0  0  0  0  0
   -5.1654   -0.3435   -7.1555 H   0  0  0  0  0  0  0  0  0  0  0  0
  1  2  1  0
  1  5  1  0
  2  3  1  0
  2  4  1  0
  2  8  1  0
  5  6  1  0
  5  7  1  0
  5 11  1  0
  8  9  1  0
  8 10  1  0
  8 17  1  0
 11 12  1  0
 11 13  1  0
 11 14  1  0
 14 15  1  0
 14 16  1  0
 14 23  1  0
 17 18  1  0
 17 19  1  0
 17 20  1  0
 20 21  1  0
 20 22  1  0
 20 26  1  0
 23 24  1  0
 23 25  1  0
 23 29  1  0
 26 27  1  0
 26 28  1  0
 26 36  1  0
 29 30  1  0
 29 31  1  0
 29 32  1  0
 32 33  1  0
 32 34  1  0
 32 35  1  0
 36 37  1  0
 36 38  1  0
 36 39  1  0
M  CHG  1   1   1
M  RAD  1   1   2
M  END
$$$$

     RDKit          3D

 39 38  0  0  0  0  0  0  0  0999 V2000
   -0.0008    0.0008   -3.1955 S   0  0  0  0  0  2  0  0  0  0  0  0
    1.0242    1.3857   -4.4327 Si  0  0  0  0  0  4  0  0  0  0  0  0
    0.8893    2.7342   -3.8127 H   0  0  0  0  0  0  0  0  0  0  0  0
    0.4310    1.4762   -5.7610 H   0  0  0  0  0  0  0  0  0  0  0  0
    0.6045   -2.0062   -3.4891 Si  0  0  0  0  0  4  0  0  0  0  0  0
    0.6545   -2.6720   -2.1597 H   0  0  0  0  0  0  0  0  0  0  0  0
    1.8933   -2.1306   -4.1668 H   0  0  0  0  0  0  0  0  0  0  0  0
    3.1806    0.9505   -4.6327 Si  0  0  0  0  0  4  0  0  0  0  0  0
    3.9108    2.2388   -4.7966 H   0  0  0  0  0  0  0  0  0  0  0  0
    3.7418    0.3090   -3.4454 H   0  0  0  0  0  0  0  0  0  0  0  0
   -0.9517   -3.1316   -4.6723 Si  0  0  0  0  0  4  0  0  0  0  0  0
   -0.5711   -4.5241   -4.8216 H   0  0  0  0  0  0  0  0  0  0  0  0
   -2.2681   -2.9659   -4.0583 H   0  0  0  0  0  0  0  0  0  0  0  0
   -1.0256   -2.1579   -6.7035 Si  0  0  0  0  0  4  0  0  0  0  0  0
    0.3501   -1.7997   -7.0463 H   0  0  0  0  0  0  0  0  0  0  0  0
   -1.5734   -3.0758   -7.6932 H   0  0  0  0  0  0  0  0  0  0  0  0
    3.6170   -0.2419   -6.4905 Si  0  0  0  0  0  4  0  0  0  0  0  0
    5.0436   -0.0968   -6.8584 H   0  0  0  0  0  0  0  0  0  0  0  0
    3.2670   -1.6306   -6.2137 H   0  0  0  0  0  0  0  0  0  0  0  0
    2.4032    0.5333   -8.1770 Si  0  0  0  0  0  4  0  0  0  0  0  0
    3.0384    1.7325   -8.7712 H   0  0  0  0  0  0  0  0  0  0  0  0
    1.1092    0.9943   -7.6254 H   0  0  0  0  0  0  0  0  0  0  0  0
   -2.2513   -0.2962   -6.5077 Si  0  0  0  0  0  4  0  0  0  0  0  0
   -1.5155    0.8672   -7.0531 H   0  0  0  0  0  0  0  0  0  0  0  0
   -2.5867   -0.0161   -5.1028 H   0  0  0  0  0  0  0  0  0  0  0  0
    2.0709   -1.0113   -9.7497 Si  0  0  0  0  0  4  0  0  0  0  0  0
    2.6071   -0.5937  -11.0449 H   0  0  0  0  0  0  0  0  0  0  0  0
    0.6066   -1.2620   -9.8609 H   0  0  0  0  0  0  0  0  0  0  0  0
   -4.1374   -0.6032   -7.6687 Si  0  0  0  0  0  4  0  0  0  0  0  0
   -3.8069   -0.4303   -9.0988 H   0  0  0  0  0  0  0  0  0  0  0  0
   -5.1575    0.3892   -7.3120 H   0  0  0  0  0  0  0  0  0  0  0  0
   -4.8870   -2.6805   -7.3946 Si  0  0  0  0  0  4  0  0  0  0  0  0
   -6.2759   -2.7196   -7.9062 H   0  0  0  0  0  0  0  0  0  0  0  0
   -4.9425   -3.0601   -5.9735 H   0  0  0  0  0  0  0  0  0  0  0  0
   -4.0535   -3.6261   -8.1326 H   0  0  0  0  0  0  0  0  0  0  0  0
    2.9856   -2.9326   -9.0506 Si  0  0  0  0  0  4  0  0  0  0  0  0
    4.4127   -2.9795   -9.3368 H   0  0  0  0  0  0  0  0  0  0  0  0
    2.2927   -4.0746   -9.6769 H   0  0  0  0  0  0  0  0  0  0  0  0
    2.7737   -3.0519   -7.5931 H   0  0  0  0  0  0  0  0  0  0  0  0
  1  2  1  0
  1  5  1  0
  2  3  1  0
  2  4  1  0
  2  8  1  0
  5  6  1  0
  5  7  1  0
  5 11  1  0
  8  9  1  0
  8 10  1  0
  8 17  1  0
 11 12  1  0
 11 13  1  0
 11 14  1  0
 14 15  1  0
 14 16  1  0
 14 23  1  0
 17 18  1  0
 17 19  1  0
 17 20  1  0
 20 21  1  0
 20 22  1  0
 20 26  1  0
 23 24  1  0
 23 25  1  0
 23 29  1  0
 26 27  1  0
 26 28  1  0
 26 36  1  0
 29 30  1  0
 29 31  1  0
 29 32  1  0
 32 33  1  0
 32 34  1  0
 32 35  1  0
 36 37  1  0
 36 38  1  0
 36 39  1  0
M  CHG  1   1   1
M  RAD  1   1   2
M  END
$$$$

     RDKit          3D

 39 38  0  0  0  0  0  0  0  0999 V2000
   -0.0008    0.0008   -3.1955 S   0  0  0  0  0  2  0  0  0  0  0  0
   -1.9390   -0.3007   -4.0921 Si  0  0  0  0  0  4  0  0  0  0  0  0
   -2.2862   -1.7301   -3.8472 H   0  0  0  0  0  0  0  0  0  0  0  0
   -2.9607    0.5288   -3.4738 H   0  0  0  0  0  0  0  0  0  0  0  0
    1.2084    1.3069   -4.3810 Si  0  0  0  0  0  4  0  0  0  0  0  0
    1.8388    2.2800   -3.4452 H   0  0  0  0  0  0  0  0  0  0  0  0
    0.3802    2.1104   -5.2969 H   0  0  0  0  0  0  0  0  0  0  0  0
   -1.8018   -0.0289   -6.2913 Si  0  0  0  0  0  4  0  0  0  0  0  0
   -0.3801   -0.1573   -6.6711 H   0  0  0  0  0  0  0  0  0  0  0  0
   -2.5202   -1.0895   -7.0302 H   0  0  0  0  0  0  0  0  0  0  0  0
    2.8087    0.2016   -5.4660 Si  0  0  0  0  0  4  0  0  0  0  0  0
    2.7039   -1.2439   -5.1647 H   0  0  0  0  0  0  0  0  0  0  0  0
    4.1393    0.6817   -5.0247 H   0  0  0  0  0  0  0  0  0  0  0  0
    2.6817    0.5505   -7.6773 Si  0  0  0  0  0  4  0  0  0  0  0  0
    1.3801    1.2263   -7.9453 H   0  0  0  0  0  0  0  0  0  0  0  0
    3.7333    1.4289   -8.1551 H   0  0  0  0  0  0  0  0  0  0  0  0
   -2.4802    1.9933   -6.9300 Si  0  0  0  0  0  4  0  0  0  0  0  0
   -3.6711    2.4401   -6.2358 H   0  0  0  0  0  0  0  0  0  0  0  0
   -1.3837    2.9773   -6.7995 H   0  0  0  0  0  0  0  0  0  0  0  0
   -2.9576    1.8650   -9.1302 Si  0  0  0  0  0  4  0  0  0  0  0  0
   -1.6790    1.5569   -9.8070 H   0  0  0  0  0  0  0  0  0  0  0  0
   -3.4908    3.1270   -9.6120 H   0  0  0  0  0  0  0  0  0  0  0  0
    2.6348   -1.3961   -8.7526 Si  0  0  0  0  0  4  0  0  0  0  0  0
    3.3670   -1.2385  -10.0294 H   0  0  0  0  0  0  0  0  0  0  0  0
    3.3109   -2.4222   -7.9491 H   0  0  0  0  0  0  0  0  0  0  0  0
   -4.3800    0.1664   -9.4202 Si  0  0  0  0  0  4  0  0  0  0  0  0
   -3.6998   -0.9494  -10.0944 H   0  0  0  0  0  0  0  0  0  0  0  0
   -5.4735    0.6223  -10.2765 H   0  0  0  0  0  0  0  0  0  0  0  0
    0.5619   -2.0564   -9.1999 Si  0  0  0  0  0  4  0  0  0  0  0  0
   -0.3836   -0.9082   -9.2161 H   0  0  0  0  0  0  0  0  0  0  0  0
    0.5045   -2.6691  -10.5307 H   0  0  0  0  0  0  0  0  0  0  0  0
   -0.1160   -3.6054   -7.7211 Si  0  0  0  0  0  4  0  0  0  0  0  0
    0.6438   -3.4993   -6.4606 H   0  0  0  0  0  0  0  0  0  0  0  0
    0.0094   -4.9531   -8.2867 H   0  0  0  0  0  0  0  0  0  0  0  0
   -1.5232   -3.2989   -7.3925 H   0  0  0  0  0  0  0  0  0  0  0  0
   -5.2329   -0.5251   -7.4860 Si  0  0  0  0  0  4  0  0  0  0  0  0
   -6.7114   -0.5298   -7.5043 H   0  0  0  0  0  0  0  0  0  0  0  0
   -4.7195    0.3664   -6.4288 H   0  0  0  0  0  0  0  0  0  0  0  0
   -4.8148   -1.9009   -7.1556 H   0  0  0  0  0  0  0  0  0  0  0  0
  1  2  1  0
  1  5  1  0
  2  3  1  0
  2  4  1  0
  2  8  1  0
  5  6  1  0
  5  7  1  0
  5 11  1  0
  8  9  1  0
  8 10  1  0
  8 17  1  0
 11 12  1  0
 11 13  1  0
 11 14  1  0
 14 15  1  0
 14 16  1  0
 14 23  1  0
 17 18  1  0
 17 19  1  0
 17 20  1  0
 20 21  1  0
 20 22  1  0
 20 26  1  0
 23 24  1  0
 23 25  1  0
 23 29  1  0
 26 27  1  0
 26 28  1  0
 26 36  1  0
 29 30  1  0
 29 31  1  0
 29 32  1  0
 32 33  1  0
 32 34  1  0
 32 35  1  0
 36 37  1  0
 36 38  1  0
 36 39  1  0
M  CHG  1   1   1
M  RAD  1   1   2
M  END
$$$$

     RDKit          3D

 39 38  0  0  0  0  0  0  0  0999 V2000
   -0.0008    0.0008   -3.1955 S   0  0  0  0  0  2  0  0  0  0  0  0
   -1.9600   -0.0936   -4.0921 Si  0  0  0  0  0  4  0  0  0  0  0  0
   -2.4568   -1.4781   -3.8471 H   0  0  0  0  0  0  0  0  0  0  0  0
   -2.8880    0.8396   -3.4738 H   0  0  0  0  0  0  0  0  0  0  0  0
    1.3400    1.1713   -4.3810 Si  0  0  0  0  0  4  0  0  0  0  0  0
    2.0700    2.0721   -3.4453 H   0  0  0  0  0  0  0  0  0  0  0  0
    0.6017    2.0581   -5.2969 H   0  0  0  0  0  0  0  0  0  0  0  0
   -1.7948    0.1621   -6.2913 Si  0  0  0  0  0  4  0  0  0  0  0  0
   -0.3947   -0.1163   -6.6711 H   0  0  0  0  0  0  0  0  0  0  0  0
   -2.6216   -0.8164   -7.0302 H   0  0  0  0  0  0  0  0  0  0  0  0
    2.8142   -0.0974   -5.4660 Si  0  0  0  0  0  4  0  0  0  0  0  0
    2.5567   -1.5237   -5.1646 H   0  0  0  0  0  0  0  0  0  0  0  0
    4.1881    0.2389   -5.0247 H   0  0  0  0  0  0  0  0  0  0  0  0
    2.7248    0.2629   -7.6773 Si  0  0  0  0  0  4  0  0  0  0  0  0
    1.5023    1.0729   -7.9454 H   0  0  0  0  0  0  0  0  0  0  0  0
    3.8637    1.0248   -8.1551 H   0  0  0  0  0  0  0  0  0  0  0  0
   -2.2550    2.2448   -6.9301 Si  0  0  0  0  0  4  0  0  0  0  0  0
   -3.3918    2.8153   -6.2358 H   0  0  0  0  0  0  0  0  0  0  0  0
   -1.0604    3.1070   -6.7996 H   0  0  0  0  0  0  0  0  0  0  0  0
   -2.7433    2.1678   -9.1303 Si  0  0  0  0  0  4  0  0  0  0  0  0
   -1.5046    1.7259   -9.8071 H   0  0  0  0  0  0  0  0  0  0  0  0
   -3.1397    3.4792   -9.6121 H   0  0  0  0  0  0  0  0  0  0  0  0
    2.4719   -1.6678   -8.7525 Si  0  0  0  0  0  4  0  0  0  0  0  0
    3.2166   -1.5887  -10.0294 H   0  0  0  0  0  0  0  0  0  0  0  0
    3.0353   -2.7598   -7.9490 H   0  0  0  0  0  0  0  0  0  0  0  0
   -4.3378    0.6295   -9.4202 Si  0  0  0  0  0  4  0  0  0  0  0  0
   -3.7797   -0.5521  -10.0944 H   0  0  0  0  0  0  0  0  0  0  0  0
   -5.3768    1.1988  -10.2766 H   0  0  0  0  0  0  0  0  0  0  0  0
    0.3406   -2.1047   -9.1998 Si  0  0  0  0  0  4  0  0  0  0  0  0
   -0.4779   -0.8627   -9.2161 H   0  0  0  0  0  0  0  0  0  0  0  0
    0.2185   -2.7078  -10.5307 H   0  0  0  0  0  0  0  0  0  0  0  0
   -0.4977   -3.5730   -7.7210 Si  0  0  0  0  0  4  0  0  0  0  0  0
    0.2691   -3.5480   -6.4605 H   0  0  0  0  0  0  0  0  0  0  0  0
   -0.5159   -4.9264   -8.2865 H   0  0  0  0  0  0  0  0  0  0  0  0
   -1.8644   -3.1190   -7.3924 H   0  0  0  0  0  0  0  0  0  0  0  0
   -5.2592    0.0324   -7.4860 Si  0  0  0  0  0  4  0  0  0  0  0  0
   -6.7298    0.1845   -7.5043 H   0  0  0  0  0  0  0  0  0  0  0  0
   -4.6542    0.8645   -6.4288 H   0  0  0  0  0  0  0  0  0  0  0  0
   -4.9893   -1.3799   -7.1555 H   0  0  0  0  0  0  0  0  0  0  0  0
  1  2  1  0
  1  5  1  0
  2  3  1  0
  2  4  1  0
  2  8  1  0
  5  6  1  0
  5  7  1  0
  5 11  1  0
  8  9  1  0
  8 10  1  0
  8 17  1  0
 11 12  1  0
 11 13  1  0
 11 14  1  0
 14 15  1  0
 14 16  1  0
 14 23  1  0
 17 18  1  0
 17 19  1  0
 17 20  1  0
 20 21  1  0
 20 22  1  0
 20 26  1  0
 23 24  1  0
 23 25  1  0
 23 29  1  0
 26 27  1  0
 26 28  1  0
 26 36  1  0
 29 30  1  0
 29 31  1  0
 29 32  1  0
 32 33  1  0
 32 34  1  0
 32 35  1  0
 36 37  1  0
 36 38  1  0
 36 39  1  0
M  CHG  1   1   1
M  RAD  1   1   2
M  END
$$$$
