
     RDKit          3D

 39 38  0  0  0  0  0  0  0  0999 V2000
   -1.3738   -1.1888   -5.0961 S   0  0  0  0  0  2  0  0  0  0  0  0
   -2.3382   -2.9254   -5.9410 Si  0  0  0  0  0  4  0  0  0  0  0  0
   -3.2961   -2.5220   -6.9873 H   0  0  0  0  0  0  0  0  0  0  0  0
   -3.1516   -3.5251   -4.8539 H   0  0  0  0  0  0  0  0  0  0  0  0
   -0.2172   -0.1818   -6.5867 Si  0  0  0  0  0  4  0  0  0  0  0  0
    0.3475   -1.2040   -7.4911 H   0  0  0  0  0  0  0  0  0  0  0  0
    0.9537    0.4853   -5.9556 H   0  0  0  0  0  0  0  0  0  0  0  0
   -0.8477   -4.3581   -6.7489 Si  0  0  0  0  0  4  0  0  0  0  0  0
    0.4982   -3.8432   -6.5114 H   0  0  0  0  0  0  0  0  0  0  0  0
   -0.9723   -5.6159   -5.9581 H   0  0  0  0  0  0  0  0  0  0  0  0
   -1.4028    1.3447   -7.6732 Si  0  0  0  0  0  4  0  0  0  0  0  0
   -1.0820    1.3604   -9.1060 H   0  0  0  0  0  0  0  0  0  0  0  0
   -1.0996    2.6893   -7.1527 H   0  0  0  0  0  0  0  0  0  0  0  0
   -3.5953    1.0043   -7.4746 Si  0  0  0  0  0  4  0  0  0  0  0  0
   -3.9760   -0.3315   -7.9271 H   0  0  0  0  0  0  0  0  0  0  0  0
   -4.0194    1.2201   -6.0756 H   0  0  0  0  0  0  0  0  0  0  0  0
   -1.2067   -4.8614   -8.8699 Si  0  0  0  0  0  4  0  0  0  0  0  0
   -0.4802   -6.1172   -9.1905 H   0  0  0  0  0  0  0  0  0  0  0  0
   -2.6267   -5.1377   -9.0772 H   0  0  0  0  0  0  0  0  0  0  0  0
   -0.4780   -3.2969  -10.2625 Si  0  0  0  0  0  4  0  0  0  0  0  0
    0.8268   -3.6648  -10.8565 H   0  0  0  0  0  0  0  0  0  0  0  0
   -0.3815   -1.9781   -9.6429 H   0  0  0  0  0  0  0  0  0  0  0  0
   -4.6463    2.5577   -8.7069 Si  0  0  0  0  0  4  0  0  0  0  0  0
   -4.7911    3.7727   -7.8789 H   0  0  0  0  0  0  0  0  0  0  0  0
   -5.9883    2.1055   -9.0720 H   0  0  0  0  0  0  0  0  0  0  0  0
   -1.9872   -3.1162  -11.9306 Si  0  0  0  0  0  4  0  0  0  0  0  0
   -2.0814   -4.3601  -12.6852 H   0  0  0  0  0  0  0  0  0  0  0  0
   -1.6200   -2.0117  -12.8099 H   0  0  0  0  0  0  0  0  0  0  0  0
   -3.4484    3.0696  -10.5104 Si  0  0  0  0  0  4  0  0  0  0  0  0
   -2.0260    2.7353  -10.2898 H   0  0  0  0  0  0  0  0  0  0  0  0
   -3.5490    4.5111  -10.8309 H   0  0  0  0  0  0  0  0  0  0  0  0
   -4.1304    1.9380  -12.3051 Si  0  0  0  0  0  4  0  0  0  0  0  0
   -4.2965    0.5025  -11.9938 H   0  0  0  0  0  0  0  0  0  0  0  0
   -3.0942    2.0984  -13.3470 H   0  0  0  0  0  0  0  0  0  0  0  0
   -5.4064    2.4689  -12.8337 H   0  0  0  0  0  0  0  0  0  0  0  0
   -3.9535   -2.6104  -10.9498 Si  0  0  0  0  0  4  0  0  0  0  0  0
   -5.0167   -2.4816  -11.9294 H   0  0  0  0  0  0  0  0  0  0  0  0
   -4.2089   -3.6633   -9.9552 H   0  0  0  0  0  0  0  0  0  0  0  0
   -3.7212   -1.3640  -10.1873 H   0  0  0  0  0  0  0  0  0  0  0  0
  1  2  1  0
  1  5  1  0
  2  3  1  0
  2  4  1  0
  2  8  1  0
  5  6  1  0
  5  7  1  0
  5 11  1  0
  8  9  1  0
  8 10  1  0
  8 17  1  0
 11 12  1  0
 11 13  1  0
 11 14  1  0
 14 15  1  0
 14 16  1  0
 14 23  1  0
 17 18  1  0
 17 19  1  0
 17 20  1  0
 20 21  1  0
 20 22  1  0
 20 26  1  0
 23 24  1  0
 23 25  1  0
 23 29  1  0
 26 27  1  0
 26 28  1  0
 26 36  1  0
 29 30  1  0
 29 31  1  0
 29 32  1  0
 32 33  1  0
 32 34  1  0
 32 35  1  0
 36 37  1  0
 36 38  1  0
 36 39  1  0
M  CHG  1   1   1
M  RAD  1   1   2
M  END
$$$$

     RDKit          3D

 39 38  0  0  0  0  0  0  0  0999 V2000
   -1.3738   -1.1888   -5.0961 S   0  0  0  0  0  2  0  0  0  0  0  0
   -0.2811    0.3685   -6.1350 Si  0  0  0  0  0  4  0  0  0  0  0  0
   -1.1571    1.5458   -6.2660 H   0  0  0  0  0  0  0  0  0  0  0  0
    0.9135    0.7120   -5.3857 H   0  0  0  0  0  0  0  0  0  0  0  0
   -2.8986   -1.9001   -6.4304 Si  0  0  0  0  0  4  0  0  0  0  0  0
   -4.2038   -1.6050   -5.7721 H   0  0  0  0  0  0  0  0  0  0  0  0
   -2.8994   -1.1616   -7.7023 H   0  0  0  0  0  0  0  0  0  0  0  0
    0.2349   -0.4383   -8.1601 Si  0  0  0  0  0  4  0  0  0  0  0  0
   -0.8265   -1.3684   -8.5481 H   0  0  0  0  0  0  0  0  0  0  0  0
    1.4900   -1.2030   -8.1196 H   0  0  0  0  0  0  0  0  0  0  0  0
   -2.7268   -4.0778   -6.8025 Si  0  0  0  0  0  4  0  0  0  0  0  0
   -2.0242   -4.7443   -5.6908 H   0  0  0  0  0  0  0  0  0  0  0  0
   -4.1036   -4.6472   -6.8406 H   0  0  0  0  0  0  0  0  0  0  0  0
   -1.7117   -4.5426   -8.7148 Si  0  0  0  0  0  4  0  0  0  0  0  0
   -1.8381   -3.3607   -9.6143 H   0  0  0  0  0  0  0  0  0  0  0  0
   -2.3182   -5.6658   -9.4301 H   0  0  0  0  0  0  0  0  0  0  0  0
    0.2991    1.1896   -9.6844 Si  0  0  0  0  0  4  0  0  0  0  0  0
    1.5850    1.1008  -10.4029 H   0  0  0  0  0  0  0  0  0  0  0  0
    0.1533    2.4678   -8.9884 H   0  0  0  0  0  0  0  0  0  0  0  0
   -1.3451    0.9204  -11.2039 Si  0  0  0  0  0  4  0  0  0  0  0  0
   -1.7586    2.2174  -11.7490 H   0  0  0  0  0  0  0  0  0  0  0  0
   -2.4789    0.3229  -10.4811 H   0  0  0  0  0  0  0  0  0  0  0  0
    0.4889   -4.8672   -8.4097 Si  0  0  0  0  0  4  0  0  0  0  0  0
    1.2513   -3.6542   -8.7724 H   0  0  0  0  0  0  0  0  0  0  0  0
    0.7077   -5.0703   -6.9621 H   0  0  0  0  0  0  0  0  0  0  0  0
   -0.6987   -0.5070  -12.7716 Si  0  0  0  0  0  4  0  0  0  0  0  0
   -0.4199    0.2692  -14.0010 H   0  0  0  0  0  0  0  0  0  0  0  0
    0.5541   -1.1548  -12.3845 H   0  0  0  0  0  0  0  0  0  0  0  0
    1.1974   -6.6536   -9.5279 Si  0  0  0  0  0  4  0  0  0  0  0  0
    2.6407   -6.4743   -9.7851 H   0  0  0  0  0  0  0  0  0  0  0  0
    0.9381   -7.8665   -8.7301 H   0  0  0  0  0  0  0  0  0  0  0  0
    0.1839   -6.8701  -11.4912 Si  0  0  0  0  0  4  0  0  0  0  0  0
    1.0666   -7.5536  -12.4578 H   0  0  0  0  0  0  0  0  0  0  0  0
   -0.1116   -5.5456  -12.0507 H   0  0  0  0  0  0  0  0  0  0  0  0
   -1.0265   -7.6852  -11.3716 H   0  0  0  0  0  0  0  0  0  0  0  0
   -2.2129   -2.0616  -13.1943 Si  0  0  0  0  0  4  0  0  0  0  0  0
   -3.3535   -2.0197  -12.2658 H   0  0  0  0  0  0  0  0  0  0  0  0
   -2.7047   -1.9223  -14.5786 H   0  0  0  0  0  0  0  0  0  0  0  0
   -1.6273   -3.4214  -13.1001 H   0  0  0  0  0  0  0  0  0  0  0  0
  1  2  1  0
  1  5  1  0
  2  3  1  0
  2  4  1  0
  2  8  1  0
  5  6  1  0
  5  7  1  0
  5 11  1  0
  8  9  1  0
  8 10  1  0
  8 17  1  0
 11 12  1  0
 11 13  1  0
 11 14  1  0
 14 15  1  0
 14 16  1  0
 14 23  1  0
 17 18  1  0
 17 19  1  0
 17 20  1  0
 20 21  1  0
 20 22  1  0
 20 26  1  0
 23 24  1  0
 23 25  1  0
 23 29  1  0
 26 27  1  0
 26 28  1  0
 26 36  1  0
 29 30  1  0
 29 31  1  0
 29 32  1  0
 32 33  1  0
 32 34  1  0
 32 35  1  0
 36 37  1  0
 36 38  1  0
 36 39  1  0
M  CHG  1   1   1
M  RAD  1   1   2
M  END
$$$$

     RDKit          3D

 39 38  0  0  0  0  0  0  0  0999 V2000
   -1.3738   -1.1888   -5.0961 S   0  0  0  0  0  2  0  0  0  0  0  0
    0.4876   -1.5903   -6.1317 Si  0  0  0  0  0  4  0  0  0  0  0  0
    1.0634   -0.3076   -6.5717 H   0  0  0  0  0  0  0  0  0  0  0  0
    1.4065   -2.2741   -5.2403 H   0  0  0  0  0  0  0  0  0  0  0  0
   -2.7947   -0.5302   -6.5654 Si  0  0  0  0  0  4  0  0  0  0  0  0
   -3.1719    0.8629   -6.1900 H   0  0  0  0  0  0  0  0  0  0  0  0
   -2.1963   -0.4505   -7.9066 H   0  0  0  0  0  0  0  0  0  0  0  0
   -0.0160   -2.8595   -7.9077 Si  0  0  0  0  0  4  0  0  0  0  0  0
   -1.3643   -2.4930   -8.3437 H   0  0  0  0  0  0  0  0  0  0  0  0
   -0.0479   -4.2842   -7.5463 H   0  0  0  0  0  0  0  0  0  0  0  0
   -4.6043   -1.8086   -6.6022 Si  0  0  0  0  0  4  0  0  0  0  0  0
   -4.7940   -2.4836   -5.3053 H   0  0  0  0  0  0  0  0  0  0  0  0
   -5.7873   -0.9241   -6.8008 H   0  0  0  0  0  0  0  0  0  0  0  0
   -4.5586   -3.3112   -8.2281 Si  0  0  0  0  0  4  0  0  0  0  0  0
   -3.6279   -2.8297   -9.2882 H   0  0  0  0  0  0  0  0  0  0  0  0
   -5.8565   -3.4952   -8.8782 H   0  0  0  0  0  0  0  0  0  0  0  0
    1.3762   -2.4605   -9.6048 Si  0  0  0  0  0  4  0  0  0  0  0  0
    1.9204   -3.7508  -10.0704 H   0  0  0  0  0  0  0  0  0  0  0  0
    2.4309   -1.5678   -9.1251 H   0  0  0  0  0  0  0  0  0  0  0  0
    0.2722   -1.5276  -11.3355 Si  0  0  0  0  0  4  0  0  0  0  0  0
    1.1700   -0.6697  -12.1155 H   0  0  0  0  0  0  0  0  0  0  0  0
   -0.7895   -0.6968  -10.7460 H   0  0  0  0  0  0  0  0  0  0  0  0
   -3.7282   -5.2677   -7.5045 Si  0  0  0  0  0  4  0  0  0  0  0  0
   -2.3086   -5.4077   -7.8910 H   0  0  0  0  0  0  0  0  0  0  0  0
   -3.7486   -5.2354   -6.0269 H   0  0  0  0  0  0  0  0  0  0  0  0
   -0.6886   -3.1071  -12.5583 Si  0  0  0  0  0  4  0  0  0  0  0  0
    0.0836   -3.2371  -13.8147 H   0  0  0  0  0  0  0  0  0  0  0  0
   -0.6096   -4.3979  -11.8752 H   0  0  0  0  0  0  0  0  0  0  0  0
   -4.9542   -6.9750   -8.2291 Si  0  0  0  0  0  4  0  0  0  0  0  0
   -4.0846   -8.1686   -8.2540 H   0  0  0  0  0  0  0  0  0  0  0  0
   -6.1081   -7.1666   -7.3310 H   0  0  0  0  0  0  0  0  0  0  0  0
   -5.7109   -6.6485  -10.2906 Si  0  0  0  0  0  4  0  0  0  0  0  0
   -5.8908   -7.9380  -10.9872 H   0  0  0  0  0  0  0  0  0  0  0  0
   -4.7307   -5.8804  -11.0677 H   0  0  0  0  0  0  0  0  0  0  0  0
   -7.0182   -5.9893  -10.2730 H   0  0  0  0  0  0  0  0  0  0  0  0
   -2.8048   -2.6658  -13.0219 Si  0  0  0  0  0  4  0  0  0  0  0  0
   -3.3103   -1.4756  -12.3198 H   0  0  0  0  0  0  0  0  0  0  0  0
   -2.9743   -2.4834  -14.4764 H   0  0  0  0  0  0  0  0  0  0  0  0
   -3.6851   -3.7984  -12.6434 H   0  0  0  0  0  0  0  0  0  0  0  0
  1  2  1  0
  1  5  1  0
  2  3  1  0
  2  4  1  0
  2  8  1  0
  5  6  1  0
  5  7  1  0
  5 11  1  0
  8  9  1  0
  8 10  1  0
  8 17  1  0
 11 12  1  0
 11 13  1  0
 11 14  1  0
 14 15  1  0
 14 16  1  0
 14 23  1  0
 17 18  1  0
 17 19  1  0
 17 20  1  0
 20 21  1  0
 20 22  1  0
 20 26  1  0
 23 24  1  0
 23 25  1  0
 23 29  1  0
 26 27  1  0
 26 28  1  0
 26 36  1  0
 29 30  1  0
 29 31  1  0
 29 32  1  0
 32 33  1  0
 32 34  1  0
 32 35  1  0
 36 37  1  0
 36 38  1  0
 36 39  1  0
M  CHG  1   1   1
M  RAD  1   1   2
M  END
$$$$

     RDKit          3D

 39 38  0  0  0  0  0  0  0  0999 V2000
   -1.3738   -1.1888   -5.0961 S   0  0  0  0  0  2  0  0  0  0  0  0
   -2.8455   -2.5677   -5.8657 Si  0  0  0  0  0  4  0  0  0  0  0  0
   -3.5991   -1.9489   -6.9721 H   0  0  0  0  0  0  0  0  0  0  0  0
   -3.8287   -2.7851   -4.7752 H   0  0  0  0  0  0  0  0  0  0  0  0
    0.0744   -0.7304   -6.6015 Si  0  0  0  0  0  4  0  0  0  0  0  0
    0.2828   -1.9447   -7.4164 H   0  0  0  0  0  0  0  0  0  0  0  0
    1.3901   -0.4420   -5.9690 H   0  0  0  0  0  0  0  0  0  0  0  0
   -1.9012   -4.4662   -6.5221 Si  0  0  0  0  0  4  0  0  0  0  0  0
   -0.4646   -4.4073   -6.2655 H   0  0  0  0  0  0  0  0  0  0  0  0
   -2.4478   -5.5516   -5.6583 H   0  0  0  0  0  0  0  0  0  0  0  0
   -0.5214    1.0178   -7.8283 Si  0  0  0  0  0  4  0  0  0  0  0  0
   -0.1911    0.8224   -9.2457 H   0  0  0  0  0  0  0  0  0  0  0  0
    0.2018    2.2218   -7.3831 H   0  0  0  0  0  0  0  0  0  0  0  0
   -2.7057    1.4338   -7.6941 Si  0  0  0  0  0  4  0  0  0  0  0  0
   -3.5003    0.2687   -8.0752 H   0  0  0  0  0  0  0  0  0  0  0  0
   -3.0564    1.8787   -6.3293 H   0  0  0  0  0  0  0  0  0  0  0  0
   -2.3732   -4.9765   -8.6192 Si  0  0  0  0  0  4  0  0  0  0  0  0
   -2.0988   -6.4213   -8.8306 H   0  0  0  0  0  0  0  0  0  0  0  0
   -3.8011   -4.7841   -8.8637 H   0  0  0  0  0  0  0  0  0  0  0  0
   -1.1456   -3.8452  -10.0790 Si  0  0  0  0  0  4  0  0  0  0  0  0
   -0.0271   -4.6646  -10.5970 H   0  0  0  0  0  0  0  0  0  0  0  0
   -0.6275   -2.5903   -9.5414 H   0  0  0  0  0  0  0  0  0  0  0  0
   -3.1633    3.1524   -9.0628 Si  0  0  0  0  0  4  0  0  0  0  0  0
   -2.9105    4.4043   -8.3201 H   0  0  0  0  0  0  0  0  0  0  0  0
   -4.5735    3.1420   -9.4504 H   0  0  0  0  0  0  0  0  0  0  0  0
   -2.4833   -3.2998  -11.8128 Si  0  0  0  0  0  4  0  0  0  0  0  0
   -2.9723   -4.4949  -12.4898 H   0  0  0  0  0  0  0  0  0  0  0  0
   -1.7572   -2.4451  -12.7456 H   0  0  0  0  0  0  0  0  0  0  0  0
   -1.8353    3.1083  -10.8472 Si  0  0  0  0  0  4  0  0  0  0  0  0
   -0.6076    2.3412  -10.5505 H   0  0  0  0  0  0  0  0  0  0  0  0
   -1.4476    4.4751  -11.2625 H   0  0  0  0  0  0  0  0  0  0  0  0
   -2.8253    2.1366  -12.5915 Si  0  0  0  0  0  4  0  0  0  0  0  0
   -3.4623    0.8626  -12.1962 H   0  0  0  0  0  0  0  0  0  0  0  0
   -1.7782    1.8704  -13.6002 H   0  0  0  0  0  0  0  0  0  0  0  0
   -3.8449    3.0180  -13.2020 H   0  0  0  0  0  0  0  0  0  0  0  0
   -4.1863   -2.1046  -10.9436 Si  0  0  0  0  0  4  0  0  0  0  0  0
   -5.1312   -1.7047  -11.9701 H   0  0  0  0  0  0  0  0  0  0  0  0
   -4.7917   -2.9391   -9.8947 H   0  0  0  0  0  0  0  0  0  0  0  0
   -3.5663   -0.9521  -10.2535 H   0  0  0  0  0  0  0  0  0  0  0  0
  1  2  1  0
  1  5  1  0
  2  3  1  0
  2  4  1  0
  2  8  1  0
  5  6  1  0
  5  7  1  0
  5 11  1  0
  8  9  1  0
  8 10  1  0
  8 17  1  0
 11 12  1  0
 11 13  1  0
 11 14  1  0
 14 15  1  0
 14 16  1  0
 14 23  1  0
 17 18  1  0
 17 19  1  0
 17 20  1  0
 20 21  1  0
 20 22  1  0
 20 26  1  0
 23 24  1  0
 23 25  1  0
 23 29  1  0
 26 27  1  0
 26 28  1  0
 26 36  1  0
 29 30  1  0
 29 31  1  0
 29 32  1  0
 32 33  1  0
 32 34  1  0
 32 35  1  0
 36 37  1  0
 36 38  1  0
 36 39  1  0
M  CHG  1   1   1
M  RAD  1   1   2
M  END
$$$$

     RDKit          3D

 39 38  0  0  0  0  0  0  0  0999 V2000
   -1.3738   -1.1888   -5.0961 S   0  0  0  0  0  2  0  0  0  0  0  0
    0.0850   -0.6227   -6.5314 Si  0  0  0  0  0  4  0  0  0  0  0  0
    1.3645   -0.2649   -5.8582 H   0  0  0  0  0  0  0  0  0  0  0  0
    0.3736   -1.7668   -7.3880 H   0  0  0  0  0  0  0  0  0  0  0  0
   -2.8302   -2.5190   -5.8393 Si  0  0  0  0  0  4  0  0  0  0  0  0
   -3.0890   -3.5575   -4.8008 H   0  0  0  0  0  0  0  0  0  0  0  0
   -4.1226   -1.8360   -6.0441 H   0  0  0  0  0  0  0  0  0  0  0  0
   -0.6563    1.1401   -7.6746 Si  0  0  0  0  0  4  0  0  0  0  0  0
    0.1776    2.3203   -7.3579 H   0  0  0  0  0  0  0  0  0  0  0  0
   -0.5749    0.9405   -9.1225 H   0  0  0  0  0  0  0  0  0  0  0  0
   -2.2367   -3.5596   -7.6949 Si  0  0  0  0  0  4  0  0  0  0  0  0
   -0.9006   -4.1588   -7.5441 H   0  0  0  0  0  0  0  0  0  0  0  0
   -3.1749   -4.7020   -7.8932 H   0  0  0  0  0  0  0  0  0  0  0  0
   -2.3734   -2.2719   -9.4916 Si  0  0  0  0  0  4  0  0  0  0  0  0
   -2.7799   -0.9321   -9.1190 H   0  0  0  0  0  0  0  0  0  0  0  0
   -3.3850   -2.7780  -10.4624 H   0  0  0  0  0  0  0  0  0  0  0  0
   -2.7522    1.6577   -7.0739 Si  0  0  0  0  0  4  0  0  0  0  0  0
   -3.4483    0.4074   -6.7842 H   0  0  0  0  0  0  0  0  0  0  0  0
   -2.6538    2.4297   -5.8170 H   0  0  0  0  0  0  0  0  0  0  0  0
   -3.7636    2.9089   -8.5820 Si  0  0  0  0  0  4  0  0  0  0  0  0
   -2.7944    3.8714   -9.1353 H   0  0  0  0  0  0  0  0  0  0  0  0
   -4.8295    3.6819   -7.9507 H   0  0  0  0  0  0  0  0  0  0  0  0
   -0.4296   -2.1522  -10.5655 Si  0  0  0  0  0  4  0  0  0  0  0  0
   -0.6408   -1.3346  -11.7769 H   0  0  0  0  0  0  0  0  0  0  0  0
    0.5779   -1.4387   -9.7566 H   0  0  0  0  0  0  0  0  0  0  0  0
   -4.5898    1.7295  -10.2717 Si  0  0  0  0  0  4  0  0  0  0  0  0
   -5.4262    2.6454  -11.0860 H   0  0  0  0  0  0  0  0  0  0  0  0
   -3.5171    1.2581  -11.1803 H   0  0  0  0  0  0  0  0  0  0  0  0
    0.3498   -4.1625  -11.1083 Si  0  0  0  0  0  4  0  0  0  0  0  0
    0.7844   -4.1236  -12.5230 H   0  0  0  0  0  0  0  0  0  0  0  0
    1.5587   -4.4792  -10.3147 H   0  0  0  0  0  0  0  0  0  0  0  0
   -1.2351   -5.6904  -10.7778 Si  0  0  0  0  0  4  0  0  0  0  0  0
   -0.8653   -6.5026   -9.6004 H   0  0  0  0  0  0  0  0  0  0  0  0
   -2.5234   -5.0164  -10.5253 H   0  0  0  0  0  0  0  0  0  0  0  0
   -1.3120   -6.5544  -11.9589 H   0  0  0  0  0  0  0  0  0  0  0  0
   -5.8894    0.0688   -9.5860 Si  0  0  0  0  0  4  0  0  0  0  0  0
   -5.8683   -0.1140   -8.1365 H   0  0  0  0  0  0  0  0  0  0  0  0
   -7.2856    0.2378  -10.0271 H   0  0  0  0  0  0  0  0  0  0  0  0
   -5.3979   -1.1771  -10.2400 H   0  0  0  0  0  0  0  0  0  0  0  0
  1  2  1  0
  1  5  1  0
  2  3  1  0
  2  4  1  0
  2  8  1  0
  5  6  1  0
  5  7  1  0
  5 11  1  0
  8  9  1  0
  8 10  1  0
  8 17  1  0
 11 12  1  0
 11 13  1  0
 11 14  1  0
 14 15  1  0
 14 16  1  0
 14 23  1  0
 17 18  1  0
 17 19  1  0
 17 20  1  0
 20 21  1  0
 20 22  1  0
 20 26  1  0
 23 24  1  0
 23 25  1  0
 23 29  1  0
 26 27  1  0
 26 28  1  0
 26 36  1  0
 29 30  1  0
 29 31  1  0
 29 32  1  0
 32 33  1  0
 32 34  1  0
 32 35  1  0
 36 37  1  0
 36 38  1  0
 36 39  1  0
M  CHG  1   1   1
M  RAD  1   1   2
M  END
$$$$

     RDKit          3D

 39 38  0  0  0  0  0  0  0  0999 V2000
   -1.3738   -1.1888   -5.0961 S   0  0  0  0  0  2  0  0  0  0  0  0
   -0.8053   -3.1814   -5.7326 Si  0  0  0  0  0  4  0  0  0  0  0  0
    0.5780   -3.1335   -6.2372 H   0  0  0  0  0  0  0  0  0  0  0  0
   -0.8999   -4.0991   -4.6121 H   0  0  0  0  0  0  0  0  0  0  0  0
   -1.5734    0.0151   -6.8631 Si  0  0  0  0  0  4  0  0  0  0  0  0
   -0.5545    1.0982   -6.7507 H   0  0  0  0  0  0  0  0  0  0  0  0
   -1.2417   -0.7416   -8.0799 H   0  0  0  0  0  0  0  0  0  0  0  0
   -2.2077   -3.7637   -7.3795 Si  0  0  0  0  0  4  0  0  0  0  0  0
   -2.5904   -2.5404   -8.0863 H   0  0  0  0  0  0  0  0  0  0  0  0
   -3.4393   -4.3573   -6.8389 H   0  0  0  0  0  0  0  0  0  0  0  0
   -3.5943    0.9075   -7.0360 Si  0  0  0  0  0  4  0  0  0  0  0  0
   -4.2323    1.0177   -5.7115 H   0  0  0  0  0  0  0  0  0  0  0  0
   -3.4400    2.2968   -7.5530 H   0  0  0  0  0  0  0  0  0  0  0  0
   -4.9140   -0.2205   -8.4107 Si  0  0  0  0  0  4  0  0  0  0  0  0
   -4.0589   -0.9997   -9.3507 H   0  0  0  0  0  0  0  0  0  0  0  0
   -5.7516    0.6439   -9.2428 H   0  0  0  0  0  0  0  0  0  0  0  0
   -1.2086   -5.1110   -8.8507 Si  0  0  0  0  0  4  0  0  0  0  0  0
   -2.0570   -6.3041   -9.0364 H   0  0  0  0  0  0  0  0  0  0  0  0
    0.1102   -5.4594   -8.3229 H   0  0  0  0  0  0  0  0  0  0  0  0
   -1.0191   -4.0967  -10.8557 Si  0  0  0  0  0  4  0  0  0  0  0  0
    0.1518   -4.6027  -11.5791 H   0  0  0  0  0  0  0  0  0  0  0  0
   -0.8253   -2.6653  -10.5755 H   0  0  0  0  0  0  0  0  0  0  0  0
   -6.1543   -1.7242   -7.2963 Si  0  0  0  0  0  4  0  0  0  0  0  0
   -5.5654   -3.0749   -7.4107 H   0  0  0  0  0  0  0  0  0  0  0  0
   -6.0919   -1.3709   -5.8625 H   0  0  0  0  0  0  0  0  0  0  0  0
   -2.9040   -4.3255  -11.9992 Si  0  0  0  0  0  4  0  0  0  0  0  0
   -2.6618   -5.3134  -13.0750 H   0  0  0  0  0  0  0  0  0  0  0  0
   -3.9542   -4.8772  -11.1439 H   0  0  0  0  0  0  0  0  0  0  0  0
   -8.2688   -1.6838   -7.9820 Si  0  0  0  0  0  4  0  0  0  0  0  0
   -8.8553   -3.0087   -7.6949 H   0  0  0  0  0  0  0  0  0  0  0  0
   -8.9927   -0.6092   -7.2777 H   0  0  0  0  0  0  0  0  0  0  0  0
   -8.4349   -1.3318  -10.1677 Si  0  0  0  0  0  4  0  0  0  0  0  0
   -9.6576   -1.9635  -10.7032 H   0  0  0  0  0  0  0  0  0  0  0  0
   -7.2995   -1.9509  -10.8620 H   0  0  0  0  0  0  0  0  0  0  0  0
   -8.5311    0.0987  -10.4645 H   0  0  0  0  0  0  0  0  0  0  0  0
   -3.6134   -2.4233  -12.8748 Si  0  0  0  0  0  4  0  0  0  0  0  0
   -2.8243   -1.2607  -12.4381 H   0  0  0  0  0  0  0  0  0  0  0  0
   -3.5868   -2.5061  -14.3479 H   0  0  0  0  0  0  0  0  0  0  0  0
   -5.0240   -2.1538  -12.5027 H   0  0  0  0  0  0  0  0  0  0  0  0
  1  2  1  0
  1  5  1  0
  2  3  1  0
  2  4  1  0
  2  8  1  0
  5  6  1  0
  5  7  1  0
  5 11  1  0
  8  9  1  0
  8 10  1  0
  8 17  1  0
 11 12  1  0
 11 13  1  0
 11 14  1  0
 14 15  1  0
 14 16  1  0
 14 23  1  0
 17 18  1  0
 17 19  1  0
 17 20  1  0
 20 21  1  0
 20 22  1  0
 20 26  1  0
 23 24  1  0
 23 25  1  0
 23 29  1  0
 26 27  1  0
 26 28  1  0
 26 36  1  0
 29 30  1  0
 29 31  1  0
 29 32  1  0
 32 33  1  0
 32 34  1  0
 32 35  1  0
 36 37  1  0
 36 38  1  0
 36 39  1  0
M  CHG  1   1   1
M  RAD  1   1   2
M  END
$$$$

     RDKit          3D

 39 38  0  0  0  0  0  0  0  0999 V2000
   -1.3738   -1.1888   -5.0961 S   0  0  0  0  0  2  0  0  0  0  0  0
   -3.1927   -2.0873   -5.8337 Si  0  0  0  0  0  4  0  0  0  0  0  0
   -3.6958   -1.3417   -7.0024 H   0  0  0  0  0  0  0  0  0  0  0  0
   -4.2111   -1.9100   -4.7687 H   0  0  0  0  0  0  0  0  0  0  0  0
    0.1682   -1.3120   -6.5728 Si  0  0  0  0  0  4  0  0  0  0  0  0
   -0.0036   -2.5838   -7.3042 H   0  0  0  0  0  0  0  0  0  0  0  0
    1.4979   -1.4070   -5.9113 H   0  0  0  0  0  0  0  0  0  0  0  0
   -2.8840   -4.2266   -6.3387 Si  0  0  0  0  0  4  0  0  0  0  0  0
   -1.5060   -4.6029   -6.0340 H   0  0  0  0  0  0  0  0  0  0  0  0
   -3.7578   -5.0238   -5.4311 H   0  0  0  0  0  0  0  0  0  0  0  0
    0.1723    0.4456   -7.9244 Si  0  0  0  0  0  4  0  0  0  0  0  0
    0.4463    0.0591   -9.3142 H   0  0  0  0  0  0  0  0  0  0  0  0
    1.2308    1.3903   -7.5270 H   0  0  0  0  0  0  0  0  0  0  0  0
   -1.7718    1.5328   -7.8954 Si  0  0  0  0  0  4  0  0  0  0  0  0
   -2.8867    0.6516   -8.2338 H   0  0  0  0  0  0  0  0  0  0  0  0
   -1.9857    2.1584   -6.5739 H   0  0  0  0  0  0  0  0  0  0  0  0
   -3.4600   -4.7071   -8.4167 Si  0  0  0  0  0  4  0  0  0  0  0  0
   -3.6511   -6.1762   -8.5299 H   0  0  0  0  0  0  0  0  0  0  0  0
   -4.7507   -4.0948   -8.7244 H   0  0  0  0  0  0  0  0  0  0  0  0
   -1.9161   -4.1208   -9.8968 Si  0  0  0  0  0  4  0  0  0  0  0  0
   -1.1046   -5.2830  -10.3230 H   0  0  0  0  0  0  0  0  0  0  0  0
   -1.0377   -3.0572   -9.4179 H   0  0  0  0  0  0  0  0  0  0  0  0
   -1.6438    3.2093   -9.3818 Si  0  0  0  0  0  4  0  0  0  0  0  0
   -1.0213    4.3673   -8.7077 H   0  0  0  0  0  0  0  0  0  0  0  0
   -2.9793    3.6141   -9.8192 H   0  0  0  0  0  0  0  0  0  0  0  0
   -2.9870   -3.3052  -11.7081 Si  0  0  0  0  0  4  0  0  0  0  0  0
   -3.8168   -4.3309  -12.3288 H   0  0  0  0  0  0  0  0  0  0  0  0
   -2.0143   -2.7875  -12.6641 H   0  0  0  0  0  0  0  0  0  0  0  0
   -0.3696    2.6284  -11.1105 Si  0  0  0  0  0  4  0  0  0  0  0  0
    0.5494    1.5380  -10.7232 H   0  0  0  0  0  0  0  0  0  0  0  0
    0.4350    3.7730  -11.5937 H   0  0  0  0  0  0  0  0  0  0  0  0
   -1.5879    1.8974  -12.8275 Si  0  0  0  0  0  4  0  0  0  0  0  0
   -2.5997    0.9175  -12.3791 H   0  0  0  0  0  0  0  0  0  0  0  0
   -0.6623    1.2477  -13.7794 H   0  0  0  0  0  0  0  0  0  0  0  0
   -2.2686    3.0093  -13.5273 H   0  0  0  0  0  0  0  0  0  0  0  0
   -4.2404   -1.5799  -10.9759 Si  0  0  0  0  0  4  0  0  0  0  0  0
   -4.9953   -0.9762  -12.0585 H   0  0  0  0  0  0  0  0  0  0  0  0
   -5.0939   -2.1083   -9.9010 H   0  0  0  0  0  0  0  0  0  0  0  0
   -3.2999   -0.6346  -10.3349 H   0  0  0  0  0  0  0  0  0  0  0  0
  1  2  1  0
  1  5  1  0
  2  3  1  0
  2  4  1  0
  2  8  1  0
  5  6  1  0
  5  7  1  0
  5 11  1  0
  8  9  1  0
  8 10  1  0
  8 17  1  0
 11 12  1  0
 11 13  1  0
 11 14  1  0
 14 15  1  0
 14 16  1  0
 14 23  1  0
 17 18  1  0
 17 19  1  0
 17 20  1  0
 20 21  1  0
 20 22  1  0
 20 26  1  0
 23 24  1  0
 23 25  1  0
 23 29  1  0
 26 27  1  0
 26 28  1  0
 26 36  1  0
 29 30  1  0
 29 31  1  0
 29 32  1  0
 32 33  1  0
 32 34  1  0
 32 35  1  0
 36 37  1  0
 36 38  1  0
 36 39  1  0
M  CHG  1   1   1
M  RAD  1   1   2
M  END
$$$$

     RDKit          3D

 39 38  0  0  0  0  0  0  0  0999 V2000
   -1.3738   -1.1888   -5.0961 S   0  0  0  0  0  2  0  0  0  0  0  0
   -0.6862    0.0799   -6.6329 Si  0  0  0  0  0  4  0  0  0  0  0  0
   -1.2555   -0.2097   -7.9317 H   0  0  0  0  0  0  0  0  0  0  0  0
   -1.0249    1.4913   -6.2999 H   0  0  0  0  0  0  0  0  0  0  0  0
   -2.2779   -2.9666   -5.7525 Si  0  0  0  0  0  4  0  0  0  0  0  0
   -1.6075   -4.1149   -5.0843 H   0  0  0  0  0  0  0  0  0  0  0  0
   -3.6849   -3.0195   -5.3346 H   0  0  0  0  0  0  0  0  0  0  0  0
    1.5501   -0.0009   -6.7966 Si  0  0  0  0  0  4  0  0  0  0  0  0
    2.0906    1.3313   -7.0952 H   0  0  0  0  0  0  0  0  0  0  0  0
    2.1417   -0.5240   -5.5581 H   0  0  0  0  0  0  0  0  0  0  0  0
   -2.1323   -3.3084   -7.9389 Si  0  0  0  0  0  4  0  0  0  0  0  0
   -0.7232   -3.4480   -8.3465 H   0  0  0  0  0  0  0  0  0  0  0  0
   -2.7598   -4.6356   -8.2051 H   0  0  0  0  0  0  0  0  0  0  0  0
   -3.2305   -1.8082   -9.1200 Si  0  0  0  0  0  4  0  0  0  0  0  0
   -2.3793   -1.4295  -10.2867 H   0  0  0  0  0  0  0  0  0  0  0  0
   -3.5786   -0.6064   -8.3862 H   0  0  0  0  0  0  0  0  0  0  0  0
    2.0540   -1.3177   -8.5502 Si  0  0  0  0  0  4  0  0  0  0  0  0
    0.9438   -1.1568   -9.5272 H   0  0  0  0  0  0  0  0  0  0  0  0
    2.2079   -2.7025   -8.1279 H   0  0  0  0  0  0  0  0  0  0  0  0
    3.8928   -0.5158   -9.5320 Si  0  0  0  0  0  4  0  0  0  0  0  0
    4.1996   -1.3962  -10.6706 H   0  0  0  0  0  0  0  0  0  0  0  0
    4.9770   -0.5672   -8.5326 H   0  0  0  0  0  0  0  0  0  0  0  0
   -5.1320   -2.6519   -9.9759 Si  0  0  0  0  0  4  0  0  0  0  0  0
   -5.1377   -4.0983   -9.7722 H   0  0  0  0  0  0  0  0  0  0  0  0
   -5.2392   -2.3882  -11.4015 H   0  0  0  0  0  0  0  0  0  0  0  0
    3.4759    1.5711  -10.1914 Si  0  0  0  0  0  4  0  0  0  0  0  0
    4.5579    2.0634  -11.0433 H   0  0  0  0  0  0  0  0  0  0  0  0
    3.3727    2.4224   -9.0142 H   0  0  0  0  0  0  0  0  0  0  0  0
   -6.9042   -1.6821   -8.9855 Si  0  0  0  0  0  4  0  0  0  0  0  0
   -7.4952   -0.6651   -9.8888 H   0  0  0  0  0  0  0  0  0  0  0  0
   -7.9390   -2.6583   -8.6676 H   0  0  0  0  0  0  0  0  0  0  0  0
   -6.2166   -0.6108   -7.1357 Si  0  0  0  0  0  4  0  0  0  0  0  0
   -4.8278   -0.9464   -6.8096 H   0  0  0  0  0  0  0  0  0  0  0  0
   -7.0395   -1.0677   -5.9899 H   0  0  0  0  0  0  0  0  0  0  0  0
   -6.3455    0.8495   -7.2953 H   0  0  0  0  0  0  0  0  0  0  0  0
    1.5727    1.6253  -11.3323 Si  0  0  0  0  0  4  0  0  0  0  0  0
    0.4587    1.7657  -10.3678 H   0  0  0  0  0  0  0  0  0  0  0  0
    1.5512    2.7728  -12.2428 H   0  0  0  0  0  0  0  0  0  0  0  0
    1.3965    0.3554  -12.0416 H   0  0  0  0  0  0  0  0  0  0  0  0
  1  2  1  0
  1  5  1  0
  2  3  1  0
  2  4  1  0
  2  8  1  0
  5  6  1  0
  5  7  1  0
  5 11  1  0
  8  9  1  0
  8 10  1  0
  8 17  1  0
 11 12  1  0
 11 13  1  0
 11 14  1  0
 14 15  1  0
 14 16  1  0
 14 23  1  0
 17 18  1  0
 17 19  1  0
 17 20  1  0
 20 21  1  0
 20 22  1  0
 20 26  1  0
 23 24  1  0
 23 25  1  0
 23 29  1  0
 26 27  1  0
 26 28  1  0
 26 36  1  0
 29 30  1  0
 29 31  1  0
 29 32  1  0
 32 33  1  0
 32 34  1  0
 32 35  1  0
 36 37  1  0
 36 38  1  0
 36 39  1  0
M  CHG  1   1   1
M  RAD  1   1   2
M  END
$$$$

     RDKit          3D

 39 38  0  0  0  0  0  0  0  0999 V2000
   -1.3738   -1.1888   -5.0961 S   0  0  0  0  0  2  0  0  0  0  0  0
   -2.6101    0.4986   -5.6642 Si  0  0  0  0  0  4  0  0  0  0  0  0
   -4.0240    0.0998   -5.5534 H   0  0  0  0  0  0  0  0  0  0  0  0
   -2.3353    1.6237   -4.7894 H   0  0  0  0  0  0  0  0  0  0  0  0
   -1.5549   -2.6652   -6.6449 Si  0  0  0  0  0  4  0  0  0  0  0  0
   -2.1583   -3.8708   -6.0075 H   0  0  0  0  0  0  0  0  0  0  0  0
   -2.4903   -2.2408   -7.6975 H   0  0  0  0  0  0  0  0  0  0  0  0
   -2.1101    0.9846   -7.7930 Si  0  0  0  0  0  4  0  0  0  0  0  0
   -1.7286   -0.2649   -8.4530 H   0  0  0  0  0  0  0  0  0  0  0  0
   -0.9531    1.8884   -7.8705 H   0  0  0  0  0  0  0  0  0  0  0  0
    0.4098   -3.1913   -7.5245 Si  0  0  0  0  0  4  0  0  0  0  0  0
    1.5000   -2.9162   -6.5711 H   0  0  0  0  0  0  0  0  0  0  0  0
    0.4220   -4.6605   -7.7753 H   0  0  0  0  0  0  0  0  0  0  0  0
    0.8025   -2.1405   -9.4337 Si  0  0  0  0  0  4  0  0  0  0  0  0
   -0.5041   -1.7342  -10.0249 H   0  0  0  0  0  0  0  0  0  0  0  0
    1.4561   -2.9869  -10.4325 H   0  0  0  0  0  0  0  0  0  0  0  0
   -3.8829    1.8054   -8.8706 Si  0  0  0  0  0  4  0  0  0  0  0  0
   -3.4865    3.0712   -9.5174 H   0  0  0  0  0  0  0  0  0  0  0  0
   -4.9533    2.0066   -7.8942 H   0  0  0  0  0  0  0  0  0  0  0  0
   -4.5474    0.3930  -10.4980 Si  0  0  0  0  0  4  0  0  0  0  0  0
   -5.9890    0.5223  -10.7338 H   0  0  0  0  0  0  0  0  0  0  0  0
   -4.2641   -0.9642  -10.0053 H   0  0  0  0  0  0  0  0  0  0  0  0
    1.9561   -0.2442   -9.0961 Si  0  0  0  0  0  4  0  0  0  0  0  0
    1.0537    0.9261   -9.1109 H   0  0  0  0  0  0  0  0  0  0  0  0
    2.5200   -0.3086   -7.7314 H   0  0  0  0  0  0  0  0  0  0  0  0
   -3.3413    0.7273  -12.3273 Si  0  0  0  0  0  4  0  0  0  0  0  0
   -4.2012    1.4189  -13.3143 H   0  0  0  0  0  0  0  0  0  0  0  0
   -2.2195    1.6207  -12.0409 H   0  0  0  0  0  0  0  0  0  0  0  0
    3.6042   -0.0356  -10.5738 Si  0  0  0  0  0  4  0  0  0  0  0  0
    3.9094    1.4040  -10.7000 H   0  0  0  0  0  0  0  0  0  0  0  0
    4.7786   -0.7974  -10.1099 H   0  0  0  0  0  0  0  0  0  0  0  0
    3.0277   -0.7819  -12.5836 Si  0  0  0  0  0  4  0  0  0  0  0  0
    3.7675   -0.0585  -13.6372 H   0  0  0  0  0  0  0  0  0  0  0  0
    1.6008   -0.5314  -12.8201 H   0  0  0  0  0  0  0  0  0  0  0  0
    3.3560   -2.2009  -12.7322 H   0  0  0  0  0  0  0  0  0  0  0  0
   -2.5629   -1.1503  -13.1974 Si  0  0  0  0  0  4  0  0  0  0  0  0
   -2.8206   -2.3256  -12.3507 H   0  0  0  0  0  0  0  0  0  0  0  0
   -3.1544   -1.3703  -14.5314 H   0  0  0  0  0  0  0  0  0  0  0  0
   -1.0956   -1.0786  -13.4041 H   0  0  0  0  0  0  0  0  0  0  0  0
  1  2  1  0
  1  5  1  0
  2  3  1  0
  2  4  1  0
  2  8  1  0
  5  6  1  0
  5  7  1  0
  5 11  1  0
  8  9  1  0
  8 10  1  0
  8 17  1  0
 11 12  1  0
 11 13  1  0
 11 14  1  0
 14 15  1  0
 14 16  1  0
 14 23  1  0
 17 18  1  0
 17 19  1  0
 17 20  1  0
 20 21  1  0
 20 22  1  0
 20 26  1  0
 23 24  1  0
 23 25  1  0
 23 29  1  0
 26 27  1  0
 26 28  1  0
 26 36  1  0
 29 30  1  0
 29 31  1  0
 29 32  1  0
 32 33  1  0
 32 34  1  0
 32 35  1  0
 36 37  1  0
 36 38  1  0
 36 39  1  0
M  CHG  1   1   1
M  RAD  1   1   2
M  END
$$$$

     RDKit          3D

 39 38  0  0  0  0  0  0  0  0999 V2000
   -1.3738   -1.1888   -5.0961 S   0  0  0  0  0  2  0  0  0  0  0  0
   -0.2411   -0.1406   -6.6054 Si  0  0  0  0  0  4  0  0  0  0  0  0
   -0.0411   -1.0008   -7.7864 H   0  0  0  0  0  0  0  0  0  0  0  0
    1.1099    0.0873   -6.0344 H   0  0  0  0  0  0  0  0  0  0  0  0
   -3.3330   -1.6464   -5.8210 Si  0  0  0  0  0  4  0  0  0  0  0  0
   -3.7643   -0.5372   -6.6961 H   0  0  0  0  0  0  0  0  0  0  0  0
   -4.3009   -1.6644   -4.6909 H   0  0  0  0  0  0  0  0  0  0  0  0
   -1.2321    1.7617   -7.1764 Si  0  0  0  0  0  4  0  0  0  0  0  0
   -2.4451    1.9343   -6.3813 H   0  0  0  0  0  0  0  0  0  0  0  0
   -0.3092    2.8699   -6.7981 H   0  0  0  0  0  0  0  0  0  0  0  0
   -3.4057   -3.6098   -6.8486 Si  0  0  0  0  0  4  0  0  0  0  0  0
   -4.2625   -3.5658   -8.0402 H   0  0  0  0  0  0  0  0  0  0  0  0
   -3.9727   -4.6323   -5.9520 H   0  0  0  0  0  0  0  0  0  0  0  0
   -1.3868   -4.2970   -7.4921 Si  0  0  0  0  0  4  0  0  0  0  0  0
   -0.7316   -3.3136   -8.3510 H   0  0  0  0  0  0  0  0  0  0  0  0
   -0.5502   -4.5957   -6.3113 H   0  0  0  0  0  0  0  0  0  0  0  0
   -1.6069    1.9130   -9.3483 Si  0  0  0  0  0  4  0  0  0  0  0  0
   -1.8398    3.3395   -9.6927 H   0  0  0  0  0  0  0  0  0  0  0  0
   -0.4149    1.4968  -10.0842 H   0  0  0  0  0  0  0  0  0  0  0  0
   -3.3942    0.7714   -9.9964 Si  0  0  0  0  0  4  0  0  0  0  0  0
   -4.5654    1.6573  -10.1823 H   0  0  0  0  0  0  0  0  0  0  0  0
   -3.7405   -0.3165   -9.0860 H   0  0  0  0  0  0  0  0  0  0  0  0
   -1.6404   -6.2319   -8.6004 Si  0  0  0  0  0  4  0  0  0  0  0  0
   -1.6619   -7.3250   -7.6067 H   0  0  0  0  0  0  0  0  0  0  0  0
   -0.5077   -6.4662   -9.4953 H   0  0  0  0  0  0  0  0  0  0  0  0
   -2.9075   -0.1816  -11.9833 Si  0  0  0  0  0  4  0  0  0  0  0  0
   -2.6481    0.8326  -12.9982 H   0  0  0  0  0  0  0  0  0  0  0  0
   -4.0058   -1.0484  -12.3964 H   0  0  0  0  0  0  0  0  0  0  0  0
   -3.5663   -6.2505   -9.7140 Si  0  0  0  0  0  4  0  0  0  0  0  0
   -4.5138   -5.2904   -9.1105 H   0  0  0  0  0  0  0  0  0  0  0  0
   -4.1840   -7.5955   -9.6967 H   0  0  0  0  0  0  0  0  0  0  0  0
   -3.2937   -5.6689  -11.8480 Si  0  0  0  0  0  4  0  0  0  0  0  0
   -2.4629   -4.4516  -11.9626 H   0  0  0  0  0  0  0  0  0  0  0  0
   -4.6360   -5.4024  -12.4068 H   0  0  0  0  0  0  0  0  0  0  0  0
   -2.6704   -6.7556  -12.6353 H   0  0  0  0  0  0  0  0  0  0  0  0
   -1.0884   -1.4680  -11.6370 Si  0  0  0  0  0  4  0  0  0  0  0  0
   -0.6661   -2.1286  -12.8583 H   0  0  0  0  0  0  0  0  0  0  0  0
   -0.0553   -0.5888  -11.0689 H   0  0  0  0  0  0  0  0  0  0  0  0
   -1.4593   -2.4208  -10.5675 H   0  0  0  0  0  0  0  0  0  0  0  0
  1  2  1  0
  1  5  1  0
  2  3  1  0
  2  4  1  0
  2  8  1  0
  5  6  1  0
  5  7  1  0
  5 11  1  0
  8  9  1  0
  8 10  1  0
  8 17  1  0
 11 12  1  0
 11 13  1  0
 11 14  1  0
 14 15  1  0
 14 16  1  0
 14 23  1  0
 17 18  1  0
 17 19  1  0
 17 20  1  0
 20 21  1  0
 20 22  1  0
 20 26  1  0
 23 24  1  0
 23 25  1  0
 23 29  1  0
 26 27  1  0
 26 28  1  0
 26 36  1  0
 29 30  1  0
 29 31  1  0
 29 32  1  0
 32 33  1  0
 32 34  1  0
 32 35  1  0
 36 37  1  0
 36 38  1  0
 36 39  1  0
M  CHG  1   1   1
M  RAD  1   1   2
M  END
$$$$

     RDKit          3D

 39 38  0  0  0  0  0  0  0  0999 V2000
   -1.3738   -1.1888   -5.0961 S   0  0  0  0  0  2  0  0  0  0  0  0
    0.4876   -1.5904   -6.1317 Si  0  0  0  0  0  4  0  0  0  0  0  0
    1.0634   -0.3077   -6.5717 H   0  0  0  0  0  0  0  0  0  0  0  0
    1.4065   -2.2743   -5.2402 H   0  0  0  0  0  0  0  0  0  0  0  0
   -2.7946   -0.5301   -6.5654 Si  0  0  0  0  0  4  0  0  0  0  0  0
   -3.1718    0.8630   -6.1900 H   0  0  0  0  0  0  0  0  0  0  0  0
   -2.1963   -0.4505   -7.9066 H   0  0  0  0  0  0  0  0  0  0  0  0
   -0.0161   -2.8596   -7.9076 Si  0  0  0  0  0  4  0  0  0  0  0  0
   -1.3644   -2.4930   -8.3437 H   0  0  0  0  0  0  0  0  0  0  0  0
   -0.0481   -4.2843   -7.5463 H   0  0  0  0  0  0  0  0  0  0  0  0
   -4.6043   -1.8084   -6.6022 Si  0  0  0  0  0  4  0  0  0  0  0  0
   -4.7941   -2.4834   -5.3053 H   0  0  0  0  0  0  0  0  0  0  0  0
   -5.7873   -0.9239   -6.8008 H   0  0  0  0  0  0  0  0  0  0  0  0
   -4.5587   -3.3110   -8.2281 Si  0  0  0  0  0  4  0  0  0  0  0  0
   -3.6279   -2.8296   -9.2882 H   0  0  0  0  0  0  0  0  0  0  0  0
   -5.8566   -3.4950   -8.8782 H   0  0  0  0  0  0  0  0  0  0  0  0
    1.3761   -2.4607   -9.6048 Si  0  0  0  0  0  4  0  0  0  0  0  0
    1.9203   -3.7511  -10.0703 H   0  0  0  0  0  0  0  0  0  0  0  0
    2.4309   -1.5681   -9.1251 H   0  0  0  0  0  0  0  0  0  0  0  0
    0.2722   -1.5278  -11.3355 Si  0  0  0  0  0  4  0  0  0  0  0  0
    1.1700   -0.6699  -12.1155 H   0  0  0  0  0  0  0  0  0  0  0  0
   -0.7894   -0.6969  -10.7460 H   0  0  0  0  0  0  0  0  0  0  0  0
   -3.7284   -5.2675   -7.5045 Si  0  0  0  0  0  4  0  0  0  0  0  0
   -2.3088   -5.4077   -7.8909 H   0  0  0  0  0  0  0  0  0  0  0  0
   -3.7488   -5.2353   -6.0269 H   0  0  0  0  0  0  0  0  0  0  0  0
   -0.6887   -3.1073  -12.5582 Si  0  0  0  0  0  4  0  0  0  0  0  0
    0.0836   -3.2373  -13.8147 H   0  0  0  0  0  0  0  0  0  0  0  0
   -0.6098   -4.3980  -11.8752 H   0  0  0  0  0  0  0  0  0  0  0  0
   -4.9545   -6.9748   -8.2291 Si  0  0  0  0  0  4  0  0  0  0  0  0
   -4.0850   -8.1685   -8.2539 H   0  0  0  0  0  0  0  0  0  0  0  0
   -6.1084   -7.1664   -7.3309 H   0  0  0  0  0  0  0  0  0  0  0  0
   -5.7112   -6.6483  -10.2905 Si  0  0  0  0  0  4  0  0  0  0  0  0
   -5.8912   -7.9378  -10.9872 H   0  0  0  0  0  0  0  0  0  0  0  0
   -4.7309   -5.8803  -11.0677 H   0  0  0  0  0  0  0  0  0  0  0  0
   -7.0184   -5.9891  -10.2730 H   0  0  0  0  0  0  0  0  0  0  0  0
   -2.8049   -2.6658  -13.0218 Si  0  0  0  0  0  4  0  0  0  0  0  0
   -3.3103   -1.4756  -12.3198 H   0  0  0  0  0  0  0  0  0  0  0  0
   -2.9743   -2.4835  -14.4764 H   0  0  0  0  0  0  0  0  0  0  0  0
   -3.6852   -3.7983  -12.6433 H   0  0  0  0  0  0  0  0  0  0  0  0
  1  2  1  0
  1  5  1  0
  2  3  1  0
  2  4  1  0
  2  8  1  0
  5  6  1  0
  5  7  1  0
  5 11  1  0
  8  9  1  0
  8 10  1  0
  8 17  1  0
 11 12  1  0
 11 13  1  0
 11 14  1  0
 14 15  1  0
 14 16  1  0
 14 23  1  0
 17 18  1  0
 17 19  1  0
 17 20  1  0
 20 21  1  0
 20 22  1  0
 20 26  1  0
 23 24  1  0
 23 25  1  0
 23 29  1  0
 26 27  1  0
 26 28  1  0
 26 36  1  0
 29 30  1  0
 29 31  1  0
 29 32  1  0
 32 33  1  0
 32 34  1  0
 32 35  1  0
 36 37  1  0
 36 38  1  0
 36 39  1  0
M  CHG  1   1   1
M  RAD  1   1   2
M  END
$$$$
