
     RDKit          3D

 39 38  0  0  0  0  0  0  0  0999 V2000
   -0.0450    0.0227    3.2269 S   0  0  0  0  0  2  0  0  0  0  0  0
   -1.4247   -1.3971    4.0291 Si  0  0  0  0  0  4  0  0  0  0  0  0
   -1.7836   -1.0588    5.4086 H   0  0  0  0  0  0  0  0  0  0  0  0
   -2.6777   -1.2896    3.2326 H   0  0  0  0  0  0  0  0  0  0  0  0
    1.2776    0.7877    4.7361 Si  0  0  0  0  0  4  0  0  0  0  0  0
    2.3096    1.5915    4.0269 H   0  0  0  0  0  0  0  0  0  0  0  0
    1.9983   -0.2986    5.4114 H   0  0  0  0  0  0  0  0  0  0  0  0
   -0.6826   -3.4826    3.8262 Si  0  0  0  0  0  4  0  0  0  0  0  0
   -1.4758   -4.3599    4.7149 H   0  0  0  0  0  0  0  0  0  0  0  0
   -0.8631   -3.8791    2.4061 H   0  0  0  0  0  0  0  0  0  0  0  0
    0.2284    2.1307    6.1539 Si  0  0  0  0  0  4  0  0  0  0  0  0
   -1.0479    2.5445    5.5226 H   0  0  0  0  0  0  0  0  0  0  0  0
    0.9957    3.3844    6.3681 H   0  0  0  0  0  0  0  0  0  0  0  0
   -0.0890    1.1928    8.1380 Si  0  0  0  0  0  4  0  0  0  0  0  0
    0.8119    1.7660    9.1700 H   0  0  0  0  0  0  0  0  0  0  0  0
   -1.4655    1.5244    8.5872 H   0  0  0  0  0  0  0  0  0  0  0  0
    1.4682   -3.6686    4.3112 Si  0  0  0  0  0  4  0  0  0  0  0  0
    2.2572   -3.4616    3.0747 H   0  0  0  0  0  0  0  0  0  0  0  0
    1.9320   -2.6940    5.2863 H   0  0  0  0  0  0  0  0  0  0  0  0
    1.9638   -5.7207    5.0714 Si  0  0  0  0  0  4  0  0  0  0  0  0
    2.7698   -6.4657    4.1032 H   0  0  0  0  0  0  0  0  0  0  0  0
    2.7569   -5.6358    6.3170 H   0  0  0  0  0  0  0  0  0  0  0  0
    0.1526   -1.0122    8.0806 Si  0  0  0  0  0  4  0  0  0  0  0  0
    1.2130   -1.4582    9.0088 H   0  0  0  0  0  0  0  0  0  0  0  0
    0.4500   -1.4956    6.7445 H   0  0  0  0  0  0  0  0  0  0  0  0
    0.1004   -6.8725    5.4945 Si  0  0  0  0  0  4  0  0  0  0  0  0
    0.3150   -8.3129    5.2190 H   0  0  0  0  0  0  0  0  0  0  0  0
   -1.0466   -6.3554    4.7407 H   0  0  0  0  0  0  0  0  0  0  0  0
   -1.7553   -2.0067    8.7543 Si  0  0  0  0  0  4  0  0  0  0  0  0
   -1.6547   -2.3659   10.1696 H   0  0  0  0  0  0  0  0  0  0  0  0
   -2.0131   -3.2071    7.9790 H   0  0  0  0  0  0  0  0  0  0  0  0
   -3.3881   -0.4964    8.5542 Si  0  0  0  0  0  4  0  0  0  0  0  0
   -3.0831    0.3214    7.3641 H   0  0  0  0  0  0  0  0  0  0  0  0
   -3.3293    0.3666    9.7573 H   0  0  0  0  0  0  0  0  0  0  0  0
   -4.7009   -1.1167    8.4210 H   0  0  0  0  0  0  0  0  0  0  0  0
   -0.3335   -6.7054    7.6903 Si  0  0  0  0  0  4  0  0  0  0  0  0
   -0.0069   -5.3534    8.1253 H   0  0  0  0  0  0  0  0  0  0  0  0
   -1.7183   -7.0866    7.9557 H   0  0  0  0  0  0  0  0  0  0  0  0
    0.5227   -7.6424    8.4538 H   0  0  0  0  0  0  0  0  0  0  0  0
  1  2  1  0
  1  5  1  0
  2  3  1  0
  2  4  1  0
  2  8  1  0
  5  6  1  0
  5  7  1  0
  5 11  1  0
  8  9  1  0
  8 10  1  0
  8 17  1  0
 11 12  1  0
 11 13  1  0
 11 14  1  0
 14 15  1  0
 14 16  1  0
 14 23  1  0
 17 18  1  0
 17 19  1  0
 17 20  1  0
 20 21  1  0
 20 22  1  0
 20 26  1  0
 23 24  1  0
 23 25  1  0
 23 29  1  0
 26 27  1  0
 26 28  1  0
 26 36  1  0
 29 30  1  0
 29 31  1  0
 29 32  1  0
 32 33  1  0
 32 34  1  0
 32 35  1  0
 36 37  1  0
 36 38  1  0
 36 39  1  0
M  CHG  1   1   1
M  RAD  1   1   2
M  END
$$$$
