
     RDKit          3D

 39 38  0  0  0  0  0  0  0  0999 V2000
   -0.3186    1.4629   -2.9547 S   0  0  0  0  0  2  0  0  0  0  0  0
    0.1521    0.4263   -4.7554 Si  0  0  0  0  0  4  0  0  0  0  0  0
   -0.4007   -0.9120   -4.6852 H   0  0  0  0  0  0  0  0  0  0  0  0
   -0.3746    1.2156   -5.8831 H   0  0  0  0  0  0  0  0  0  0  0  0
   -2.2429    2.3765   -3.1814 Si  0  0  0  0  0  4  0  0  0  0  0  0
   -3.2670    1.7160   -2.3819 H   0  0  0  0  0  0  0  0  0  0  0  0
   -2.1225    3.7644   -2.6518 H   0  0  0  0  0  0  0  0  0  0  0  0
    2.3607    0.2451   -5.0587 Si  0  0  0  0  0  4  0  0  0  0  0  0
    3.0343   -0.2946   -3.8838 H   0  0  0  0  0  0  0  0  0  0  0  0
    2.5614   -0.6202   -6.2403 H   0  0  0  0  0  0  0  0  0  0  0  0
   -2.8131    2.5554   -5.3284 Si  0  0  0  0  0  4  0  0  0  0  0  0
   -4.0395    3.3830   -5.3830 H   0  0  0  0  0  0  0  0  0  0  0  0
   -1.7728    3.2711   -6.0370 H   0  0  0  0  0  0  0  0  0  0  0  0
   -3.2741    0.5931   -6.2381 Si  0  0  0  0  0  4  0  0  0  0  0  0
   -4.4080   -0.0158   -5.5092 H   0  0  0  0  0  0  0  0  0  0  0  0
   -2.1731   -0.3419   -6.1998 H   0  0  0  0  0  0  0  0  0  0  0  0
    3.1242    2.2960   -5.5787 Si  0  0  0  0  0  4  0  0  0  0  0  0
    2.0580    3.0833   -6.2258 H   0  0  0  0  0  0  0  0  0  0  0  0
    4.2176    2.1290   -6.5245 H   0  0  0  0  0  0  0  0  0  0  0  0
    3.7438    3.2973   -3.7061 Si  0  0  0  0  0  4  0  0  0  0  0  0
    5.0049    3.9964   -3.9430 H   0  0  0  0  0  0  0  0  0  0  0  0
    3.9309    2.3125   -2.6373 H   0  0  0  0  0  0  0  0  0  0  0  0
   -3.9034    0.8889   -8.3432 Si  0  0  0  0  0  4  0  0  0  0  0  0
   -5.3060    1.2732   -8.3636 H   0  0  0  0  0  0  0  0  0  0  0  0
   -3.7936   -0.4187   -9.0396 H   0  0  0  0  0  0  0  0  0  0  0  0
    2.2390    4.7845   -3.0050 Si  0  0  0  0  0  4  0  0  0  0  0  0
    0.9731    4.1620   -2.6253 H   0  0  0  0  0  0  0  0  0  0  0  0
    2.7857    5.4383   -1.8047 H   0  0  0  0  0  0  0  0  0  0  0  0
   -2.6671    2.3651   -9.4157 Si  0  0  0  0  0  4  0  0  0  0  0  0
   -1.3026    2.4612   -8.9403 H   0  0  0  0  0  0  0  0  0  0  0  0
   -2.6012    1.9613  -10.8496 H   0  0  0  0  0  0  0  0  0  0  0  0
   -3.6944    4.3657   -9.3898 Si  0  0  0  0  0  4  0  0  0  0  0  0
   -4.1222    4.6097   -8.0146 H   0  0  0  0  0  0  0  0  0  0  0  0
   -2.7809    5.3803   -9.9028 H   0  0  0  0  0  0  0  0  0  0  0  0
   -4.8576    4.3026  -10.3126 H   0  0  0  0  0  0  0  0  0  0  0  0
    1.8405    6.3457   -4.5269 Si  0  0  0  0  0  4  0  0  0  0  0  0
    2.8776    7.3772   -4.4440 H   0  0  0  0  0  0  0  0  0  0  0  0
    0.5603    7.0084   -4.1628 H   0  0  0  0  0  0  0  0  0  0  0  0
    1.7407    5.8029   -5.8859 H   0  0  0  0  0  0  0  0  0  0  0  0
  1  2  1  0
  1  5  1  0
  2  3  1  0
  2  4  1  0
  2  8  1  0
  5  6  1  0
  5  7  1  0
  5 11  1  0
  8  9  1  0
  8 10  1  0
  8 17  1  0
 11 12  1  0
 11 13  1  0
 11 14  1  0
 14 15  1  0
 14 16  1  0
 14 23  1  0
 17 18  1  0
 17 19  1  0
 17 20  1  0
 20 21  1  0
 20 22  1  0
 20 26  1  0
 23 24  1  0
 23 25  1  0
 23 29  1  0
 26 27  1  0
 26 28  1  0
 26 36  1  0
 29 30  1  0
 29 31  1  0
 29 32  1  0
 32 33  1  0
 32 34  1  0
 32 35  1  0
 36 37  1  0
 36 38  1  0
 36 39  1  0
M  CHG  1   1   1
M  RAD  1   1   2
M  END
$$$$

     RDKit          3D

 39 38  0  0  0  0  0  0  0  0999 V2000
   -0.3186    1.4629   -2.9547 S   0  0  0  0  0  2  0  0  0  0  0  0
   -0.5676    0.4054   -4.7872 Si  0  0  0  0  0  4  0  0  0  0  0  0
   -1.5391   -0.6525   -4.5908 H   0  0  0  0  0  0  0  0  0  0  0  0
   -0.9662    1.3777   -5.8206 H   0  0  0  0  0  0  0  0  0  0  0  0
   -1.8001    3.0072   -2.8563 Si  0  0  0  0  0  4  0  0  0  0  0  0
   -2.8367    2.7180   -1.8735 H   0  0  0  0  0  0  0  0  0  0  0  0
   -1.1039    4.2385   -2.3870 H   0  0  0  0  0  0  0  0  0  0  0  0
    1.3436   -0.5323   -5.4736 Si  0  0  0  0  0  4  0  0  0  0  0  0
    1.9740   -1.3255   -4.4254 H   0  0  0  0  0  0  0  0  0  0  0  0
    1.0150   -1.3610   -6.6528 H   0  0  0  0  0  0  0  0  0  0  0  0
   -2.6326    3.4684   -4.8714 Si  0  0  0  0  0  4  0  0  0  0  0  0
   -3.4739    4.6780   -4.7257 H   0  0  0  0  0  0  0  0  0  0  0  0
   -1.5456    3.7996   -5.7689 H   0  0  0  0  0  0  0  0  0  0  0  0
   -3.9119    1.8373   -5.6417 Si  0  0  0  0  0  4  0  0  0  0  0  0
   -5.0433    1.6382   -4.7101 H   0  0  0  0  0  0  0  0  0  0  0  0
   -3.2268    0.5725   -5.7789 H   0  0  0  0  0  0  0  0  0  0  0  0
    2.6841    1.1361   -6.1655 Si  0  0  0  0  0  4  0  0  0  0  0  0
    1.8728    2.2768   -6.6302 H   0  0  0  0  0  0  0  0  0  0  0  0
    3.4647    0.6339   -7.2864 H   0  0  0  0  0  0  0  0  0  0  0  0
    3.9342    1.7718   -4.4549 Si  0  0  0  0  0  4  0  0  0  0  0  0
    5.2999    1.9890   -4.9271 H   0  0  0  0  0  0  0  0  0  0  0  0
    3.9412    0.7395   -3.4151 H   0  0  0  0  0  0  0  0  0  0  0  0
   -4.7499    2.4269   -7.6077 Si  0  0  0  0  0  4  0  0  0  0  0  0
   -5.9047    3.2831   -7.3873 H   0  0  0  0  0  0  0  0  0  0  0  0
   -5.2351    1.1962   -8.2838 H   0  0  0  0  0  0  0  0  0  0  0  0
    3.2031    3.6637   -3.5307 Si  0  0  0  0  0  4  0  0  0  0  0  0
    1.8850    3.5135   -2.9188 H   0  0  0  0  0  0  0  0  0  0  0  0
    4.1460    4.0294   -2.4610 H   0  0  0  0  0  0  0  0  0  0  0  0
   -3.2754    3.4148   -8.9146 Si  0  0  0  0  0  4  0  0  0  0  0  0
   -1.9057    3.0014   -8.6911 H   0  0  0  0  0  0  0  0  0  0  0  0
   -3.6074    3.0759  -10.3283 H   0  0  0  0  0  0  0  0  0  0  0  0
   -3.5027    5.6465   -8.7506 Si  0  0  0  0  0  4  0  0  0  0  0  0
   -3.5701    5.9666   -7.3270 H   0  0  0  0  0  0  0  0  0  0  0  0
   -2.3918    6.2933   -9.4396 H   0  0  0  0  0  0  0  0  0  0  0  0
   -4.7535    6.0388   -9.4508 H   0  0  0  0  0  0  0  0  0  0  0  0
    3.1285    5.3288   -4.9915 Si  0  0  0  0  0  4  0  0  0  0  0  0
    4.4621    5.9220   -5.1165 H   0  0  0  0  0  0  0  0  0  0  0  0
    2.2517    6.3852   -4.4205 H   0  0  0  0  0  0  0  0  0  0  0  0
    2.6079    4.9154   -6.2990 H   0  0  0  0  0  0  0  0  0  0  0  0
  1  2  1  0
  1  5  1  0
  2  3  1  0
  2  4  1  0
  2  8  1  0
  5  6  1  0
  5  7  1  0
  5 11  1  0
  8  9  1  0
  8 10  1  0
  8 17  1  0
 11 12  1  0
 11 13  1  0
 11 14  1  0
 14 15  1  0
 14 16  1  0
 14 23  1  0
 17 18  1  0
 17 19  1  0
 17 20  1  0
 20 21  1  0
 20 22  1  0
 20 26  1  0
 23 24  1  0
 23 25  1  0
 23 29  1  0
 26 27  1  0
 26 28  1  0
 26 36  1  0
 29 30  1  0
 29 31  1  0
 29 32  1  0
 32 33  1  0
 32 34  1  0
 32 35  1  0
 36 37  1  0
 36 38  1  0
 36 39  1  0
M  CHG  1   1   1
M  RAD  1   1   2
M  END
$$$$

     RDKit          3D

 39 38  0  0  0  0  0  0  0  0999 V2000
   -0.3186    1.4629   -2.9547 S   0  0  0  0  0  2  0  0  0  0  0  0
   -1.8267    2.9117   -3.3816 Si  0  0  0  0  0  4  0  0  0  0  0  0
   -1.1582    4.2417   -3.4167 H   0  0  0  0  0  0  0  0  0  0  0  0
   -2.7706    2.9556   -2.2642 H   0  0  0  0  0  0  0  0  0  0  0  0
    1.1593    1.5825   -4.5352 Si  0  0  0  0  0  4  0  0  0  0  0  0
    0.7930    0.5508   -5.5184 H   0  0  0  0  0  0  0  0  0  0  0  0
    2.4951    1.3173   -4.0409 H   0  0  0  0  0  0  0  0  0  0  0  0
   -2.8312    2.5253   -5.3305 Si  0  0  0  0  0  4  0  0  0  0  0  0
   -2.4971    3.5666   -6.3333 H   0  0  0  0  0  0  0  0  0  0  0  0
   -4.2969    2.6673   -5.0965 H   0  0  0  0  0  0  0  0  0  0  0  0
    0.9862    3.5616   -5.5504 Si  0  0  0  0  0  4  0  0  0  0  0  0
   -0.3895    4.0614   -5.2980 H   0  0  0  0  0  0  0  0  0  0  0  0
    1.1165    3.4071   -6.9958 H   0  0  0  0  0  0  0  0  0  0  0  0
    2.4068    5.0480   -4.7389 Si  0  0  0  0  0  4  0  0  0  0  0  0
    1.7211    5.9467   -3.7704 H   0  0  0  0  0  0  0  0  0  0  0  0
    3.5081    4.4161   -3.9768 H   0  0  0  0  0  0  0  0  0  0  0  0
   -2.3317    0.5463   -6.1665 Si  0  0  0  0  0  4  0  0  0  0  0  0
   -3.6077   -0.1651   -6.4543 H   0  0  0  0  0  0  0  0  0  0  0  0
   -1.5706   -0.2918   -5.2560 H   0  0  0  0  0  0  0  0  0  0  0  0
   -1.2601    0.7269   -8.1267 Si  0  0  0  0  0  4  0  0  0  0  0  0
   -0.1852    1.7039   -8.0750 H   0  0  0  0  0  0  0  0  0  0  0  0
   -2.2420    1.2036   -9.1433 H   0  0  0  0  0  0  0  0  0  0  0  0
    3.1771    6.2970   -6.4122 Si  0  0  0  0  0  4  0  0  0  0  0  0
    2.5763    7.6446   -6.3641 H   0  0  0  0  0  0  0  0  0  0  0  0
    4.6193    6.4476   -6.3004 H   0  0  0  0  0  0  0  0  0  0  0  0
   -0.4947   -1.2324   -8.8001 Si  0  0  0  0  0  4  0  0  0  0  0  0
   -0.1294   -1.1068  -10.2398 H   0  0  0  0  0  0  0  0  0  0  0  0
   -1.5197   -2.2828   -8.6620 H   0  0  0  0  0  0  0  0  0  0  0  0
    2.6635    5.4185   -8.3991 Si  0  0  0  0  0  4  0  0  0  0  0  0
    1.2096    5.5097   -8.5970 H   0  0  0  0  0  0  0  0  0  0  0  0
    3.3056    6.2557   -9.4264 H   0  0  0  0  0  0  0  0  0  0  0  0
    3.4120    3.3423   -8.6070 Si  0  0  0  0  0  4  0  0  0  0  0  0
    3.6944    2.8285   -7.2421 H   0  0  0  0  0  0  0  0  0  0  0  0
    4.5866    3.2717   -9.4703 H   0  0  0  0  0  0  0  0  0  0  0  0
    2.2965    2.5179   -9.1483 H   0  0  0  0  0  0  0  0  0  0  0  0
    1.3472   -1.8485   -7.7151 Si  0  0  0  0  0  4  0  0  0  0  0  0
    1.9238   -3.0227   -8.3343 H   0  0  0  0  0  0  0  0  0  0  0  0
    2.2831   -0.6970   -7.6915 H   0  0  0  0  0  0  0  0  0  0  0  0
    0.9675   -2.0770   -6.2977 H   0  0  0  0  0  0  0  0  0  0  0  0
  1  2  1  0
  1  5  1  0
  2  3  1  0
  2  4  1  0
  2  8  1  0
  5  6  1  0
  5  7  1  0
  5 11  1  0
  8  9  1  0
  8 10  1  0
  8 17  1  0
 11 12  1  0
 11 13  1  0
 11 14  1  0
 14 15  1  0
 14 16  1  0
 14 23  1  0
 17 18  1  0
 17 19  1  0
 17 20  1  0
 20 21  1  0
 20 22  1  0
 20 26  1  0
 23 24  1  0
 23 25  1  0
 23 29  1  0
 26 27  1  0
 26 28  1  0
 26 36  1  0
 29 30  1  0
 29 31  1  0
 29 32  1  0
 32 33  1  0
 32 34  1  0
 32 35  1  0
 36 37  1  0
 36 38  1  0
 36 39  1  0
M  CHG  1   1   1
M  RAD  1   1   2
M  END
$$$$

     RDKit          3D

 39 38  0  0  0  0  0  0  0  0999 V2000
   -0.3186    1.4629   -2.9547 S   0  0  0  0  0  2  0  0  0  0  0  0
    0.0241    0.0541   -4.5034 Si  0  0  0  0  0  4  0  0  0  0  0  0
    1.1052   -0.8651   -4.0473 H   0  0  0  0  0  0  0  0  0  0  0  0
    0.4743    0.6477   -5.7478 H   0  0  0  0  0  0  0  0  0  0  0  0
   -0.0388    3.4735   -3.5907 Si  0  0  0  0  0  4  0  0  0  0  0  0
   -0.2316    4.3510   -2.4174 H   0  0  0  0  0  0  0  0  0  0  0  0
    1.3087    3.7309   -4.0968 H   0  0  0  0  0  0  0  0  0  0  0  0
   -1.8132   -1.1898   -4.7556 Si  0  0  0  0  0  4  0  0  0  0  0  0
   -1.8420   -2.1620   -3.6394 H   0  0  0  0  0  0  0  0  0  0  0  0
   -2.9712   -0.3137   -4.5967 H   0  0  0  0  0  0  0  0  0  0  0  0
   -1.5294    4.0887   -5.1285 Si  0  0  0  0  0  4  0  0  0  0  0  0
   -1.2916    5.5155   -5.4245 H   0  0  0  0  0  0  0  0  0  0  0  0
   -2.8947    3.9418   -4.6505 H   0  0  0  0  0  0  0  0  0  0  0  0
   -1.1992    2.9670   -7.0371 Si  0  0  0  0  0  4  0  0  0  0  0  0
   -1.4850    1.5672   -6.7847 H   0  0  0  0  0  0  0  0  0  0  0  0
   -2.1198    3.4576   -8.0527 H   0  0  0  0  0  0  0  0  0  0  0  0
   -1.8335   -2.2674   -6.6866 Si  0  0  0  0  0  4  0  0  0  0  0  0
   -2.6812   -3.4814   -6.5157 H   0  0  0  0  0  0  0  0  0  0  0  0
   -0.5021   -2.7444   -7.0508 H   0  0  0  0  0  0  0  0  0  0  0  0
   -2.7680   -1.0592   -8.3160 Si  0  0  0  0  0  4  0  0  0  0  0  0
   -3.2530    0.2020   -7.6861 H   0  0  0  0  0  0  0  0  0  0  0  0
   -3.9391   -1.7119   -8.8883 H   0  0  0  0  0  0  0  0  0  0  0  0
    0.9063    3.2951   -7.6879 Si  0  0  0  0  0  4  0  0  0  0  0  0
    1.6836    3.9732   -6.6323 H   0  0  0  0  0  0  0  0  0  0  0  0
    1.5484    1.9814   -7.8966 H   0  0  0  0  0  0  0  0  0  0  0  0
   -1.2665   -0.4874   -9.8512 Si  0  0  0  0  0  4  0  0  0  0  0  0
   -1.8257   -0.6978  -11.1896 H   0  0  0  0  0  0  0  0  0  0  0  0
   -0.8996    0.9419   -9.7641 H   0  0  0  0  0  0  0  0  0  0  0  0
    0.9524    4.4262   -9.6038 Si  0  0  0  0  0  4  0  0  0  0  0  0
    1.7426    5.6396   -9.3950 H   0  0  0  0  0  0  0  0  0  0  0  0
   -0.4223    4.8241   -9.9810 H   0  0  0  0  0  0  0  0  0  0  0  0
    1.8320    3.1927  -11.2554 Si  0  0  0  0  0  4  0  0  0  0  0  0
    0.9818    3.2617  -12.4625 H   0  0  0  0  0  0  0  0  0  0  0  0
    3.1458    3.7161  -11.6202 H   0  0  0  0  0  0  0  0  0  0  0  0
    2.0246    1.8010  -10.8114 H   0  0  0  0  0  0  0  0  0  0  0  0
    0.6214   -1.6620   -9.6372 Si  0  0  0  0  0  4  0  0  0  0  0  0
    0.3686   -3.0256   -9.1629 H   0  0  0  0  0  0  0  0  0  0  0  0
    1.2025   -1.7921  -10.9985 H   0  0  0  0  0  0  0  0  0  0  0  0
    1.5981   -0.9558   -8.8010 H   0  0  0  0  0  0  0  0  0  0  0  0
  1  2  1  0
  1  5  1  0
  2  3  1  0
  2  4  1  0
  2  8  1  0
  5  6  1  0
  5  7  1  0
  5 11  1  0
  8  9  1  0
  8 10  1  0
  8 17  1  0
 11 12  1  0
 11 13  1  0
 11 14  1  0
 14 15  1  0
 14 16  1  0
 14 23  1  0
 17 18  1  0
 17 19  1  0
 17 20  1  0
 20 21  1  0
 20 22  1  0
 20 26  1  0
 23 24  1  0
 23 25  1  0
 23 29  1  0
 26 27  1  0
 26 28  1  0
 26 36  1  0
 29 30  1  0
 29 31  1  0
 29 32  1  0
 32 33  1  0
 32 34  1  0
 32 35  1  0
 36 37  1  0
 36 38  1  0
 36 39  1  0
M  CHG  1   1   1
M  RAD  1   1   2
M  END
$$$$

     RDKit          3D

 39 38  0  0  0  0  0  0  0  0999 V2000
   -0.3186    1.4629   -2.9547 S   0  0  0  0  0  2  0  0  0  0  0  0
   -0.0044    3.5717   -2.9025 Si  0  0  0  0  0  4  0  0  0  0  0  0
    1.0479    3.9285   -1.9521 H   0  0  0  0  0  0  0  0  0  0  0  0
   -1.2759    4.1973   -2.4630 H   0  0  0  0  0  0  0  0  0  0  0  0
    1.5263    0.3954   -3.2163 Si  0  0  0  0  0  4  0  0  0  0  0  0
    1.7481   -0.4826   -2.0683 H   0  0  0  0  0  0  0  0  0  0  0  0
    2.6651    1.3030   -3.3877 H   0  0  0  0  0  0  0  0  0  0  0  0
    0.5109    4.4079   -4.8851 Si  0  0  0  0  0  4  0  0  0  0  0  0
   -0.1562    3.7116   -5.9926 H   0  0  0  0  0  0  0  0  0  0  0  0
    0.0130    5.8125   -4.9268 H   0  0  0  0  0  0  0  0  0  0  0  0
    1.3084   -0.8114   -5.1108 Si  0  0  0  0  0  4  0  0  0  0  0  0
    0.3900   -1.9328   -4.7648 H   0  0  0  0  0  0  0  0  0  0  0  0
    2.5951   -1.2879   -5.5865 H   0  0  0  0  0  0  0  0  0  0  0  0
    0.2721    0.4930   -6.5837 Si  0  0  0  0  0  4  0  0  0  0  0  0
   -1.0157    0.9137   -5.9625 H   0  0  0  0  0  0  0  0  0  0  0  0
    1.0786    1.6954   -6.8108 H   0  0  0  0  0  0  0  0  0  0  0  0
    2.7108    4.4939   -5.2224 Si  0  0  0  0  0  4  0  0  0  0  0  0
    3.1087    3.6609   -6.3641 H   0  0  0  0  0  0  0  0  0  0  0  0
    3.3655    3.9206   -4.0228 H   0  0  0  0  0  0  0  0  0  0  0  0
    3.4477    6.5558   -5.4906 Si  0  0  0  0  0  4  0  0  0  0  0  0
    4.7766    6.5184   -6.1457 H   0  0  0  0  0  0  0  0  0  0  0  0
    3.5860    7.1892   -4.1857 H   0  0  0  0  0  0  0  0  0  0  0  0
   -0.1659   -0.5448   -8.4814 Si  0  0  0  0  0  4  0  0  0  0  0  0
   -0.8591   -1.7954   -8.1970 H   0  0  0  0  0  0  0  0  0  0  0  0
    1.1061   -0.7789   -9.1915 H   0  0  0  0  0  0  0  0  0  0  0  0
    2.1114    7.7989   -6.7472 Si  0  0  0  0  0  4  0  0  0  0  0  0
    2.8548    9.0452   -7.0907 H   0  0  0  0  0  0  0  0  0  0  0  0
    0.9076    8.2355   -6.0242 H   0  0  0  0  0  0  0  0  0  0  0  0
   -1.5201    0.7793   -9.7027 Si  0  0  0  0  0  4  0  0  0  0  0  0
   -2.0430    0.0810  -10.8640 H   0  0  0  0  0  0  0  0  0  0  0  0
   -0.7675    1.9925  -10.0499 H   0  0  0  0  0  0  0  0  0  0  0  0
   -3.2148    1.4111   -8.3744 Si  0  0  0  0  0  4  0  0  0  0  0  0
   -4.3898    1.7643   -9.1909 H   0  0  0  0  0  0  0  0  0  0  0  0
   -2.7508    2.5254   -7.5501 H   0  0  0  0  0  0  0  0  0  0  0  0
   -3.5753    0.2617   -7.5369 H   0  0  0  0  0  0  0  0  0  0  0  0
    1.6084    6.7978   -8.6757 Si  0  0  0  0  0  4  0  0  0  0  0  0
    0.3159    7.3072   -9.1549 H   0  0  0  0  0  0  0  0  0  0  0  0
    2.6695    7.1001   -9.6551 H   0  0  0  0  0  0  0  0  0  0  0  0
    1.5827    5.3444   -8.4790 H   0  0  0  0  0  0  0  0  0  0  0  0
  1  2  1  0
  1  5  1  0
  2  3  1  0
  2  4  1  0
  2  8  1  0
  5  6  1  0
  5  7  1  0
  5 11  1  0
  8  9  1  0
  8 10  1  0
  8 17  1  0
 11 12  1  0
 11 13  1  0
 11 14  1  0
 14 15  1  0
 14 16  1  0
 14 23  1  0
 17 18  1  0
 17 19  1  0
 17 20  1  0
 20 21  1  0
 20 22  1  0
 20 26  1  0
 23 24  1  0
 23 25  1  0
 23 29  1  0
 26 27  1  0
 26 28  1  0
 26 36  1  0
 29 30  1  0
 29 31  1  0
 29 32  1  0
 32 33  1  0
 32 34  1  0
 32 35  1  0
 36 37  1  0
 36 38  1  0
 36 39  1  0
M  CHG  1   1   1
M  RAD  1   1   2
M  END
$$$$

     RDKit          3D

 39 38  0  0  0  0  0  0  0  0999 V2000
   -0.3186    1.4629   -2.9547 S   0  0  0  0  0  2  0  0  0  0  0  0
   -1.0230    3.4738   -3.0796 Si  0  0  0  0  0  4  0  0  0  0  0  0
    0.1633    4.3382   -3.3296 H   0  0  0  0  0  0  0  0  0  0  0  0
   -1.5534    3.8714   -1.7750 H   0  0  0  0  0  0  0  0  0  0  0  0
    0.6388    0.9945   -4.8416 Si  0  0  0  0  0  4  0  0  0  0  0  0
   -0.3816    0.3260   -5.6646 H   0  0  0  0  0  0  0  0  0  0  0  0
    1.7667    0.1028   -4.6633 H   0  0  0  0  0  0  0  0  0  0  0  0
   -2.5051    3.7415   -4.7192 Si  0  0  0  0  0  4  0  0  0  0  0  0
   -1.9597    4.5769   -5.8175 H   0  0  0  0  0  0  0  0  0  0  0  0
   -3.6358    4.5324   -4.1543 H   0  0  0  0  0  0  0  0  0  0  0  0
    1.1883    2.8940   -5.8746 Si  0  0  0  0  0  4  0  0  0  0  0  0
    0.3064    3.9571   -5.3288 H   0  0  0  0  0  0  0  0  0  0  0  0
    0.8980    2.8014   -7.3019 H   0  0  0  0  0  0  0  0  0  0  0  0
    3.2826    3.4849   -5.4859 Si  0  0  0  0  0  4  0  0  0  0  0  0
    3.3396    4.5269   -4.4244 H   0  0  0  0  0  0  0  0  0  0  0  0
    4.0994    2.3597   -4.9763 H   0  0  0  0  0  0  0  0  0  0  0  0
   -3.1975    1.8238   -5.5604 Si  0  0  0  0  0  4  0  0  0  0  0  0
   -4.6856    1.8113   -5.5089 H   0  0  0  0  0  0  0  0  0  0  0  0
   -2.7340    0.6644   -4.8177 H   0  0  0  0  0  0  0  0  0  0  0  0
   -2.6447    1.6258   -7.7234 Si  0  0  0  0  0  4  0  0  0  0  0  0
   -1.2573    1.9833   -7.9688 H   0  0  0  0  0  0  0  0  0  0  0  0
   -3.4903    2.5769   -8.5013 H   0  0  0  0  0  0  0  0  0  0  0  0
    4.1449    4.3488   -7.3470 Si  0  0  0  0  0  4  0  0  0  0  0  0
    4.2754    5.8137   -7.2190 H   0  0  0  0  0  0  0  0  0  0  0  0
    5.4716    3.8020   -7.5835 H   0  0  0  0  0  0  0  0  0  0  0  0
   -3.0640   -0.4102   -8.4700 Si  0  0  0  0  0  4  0  0  0  0  0  0
   -3.0211   -0.3655   -9.9593 H   0  0  0  0  0  0  0  0  0  0  0  0
   -4.3999   -0.8693   -8.0487 H   0  0  0  0  0  0  0  0  0  0  0  0
    2.8422    3.9566   -9.1169 Si  0  0  0  0  0  4  0  0  0  0  0  0
    1.5993    4.7283   -8.9719 H   0  0  0  0  0  0  0  0  0  0  0  0
    3.5490    4.4702  -10.3022 H   0  0  0  0  0  0  0  0  0  0  0  0
    2.4595    1.7918   -9.4023 Si  0  0  0  0  0  4  0  0  0  0  0  0
    2.7702    1.1086   -8.1203 H   0  0  0  0  0  0  0  0  0  0  0  0
    3.2322    1.2450  -10.5131 H   0  0  0  0  0  0  0  0  0  0  0  0
    0.9978    1.6232   -9.6296 H   0  0  0  0  0  0  0  0  0  0  0  0
   -1.5343   -1.8896   -7.8213 Si  0  0  0  0  0  4  0  0  0  0  0  0
   -1.7341   -3.1490   -8.5059 H   0  0  0  0  0  0  0  0  0  0  0  0
   -0.1902   -1.3114   -8.0692 H   0  0  0  0  0  0  0  0  0  0  0  0
   -1.6428   -2.0167   -6.3457 H   0  0  0  0  0  0  0  0  0  0  0  0
  1  2  1  0
  1  5  1  0
  2  3  1  0
  2  4  1  0
  2  8  1  0
  5  6  1  0
  5  7  1  0
  5 11  1  0
  8  9  1  0
  8 10  1  0
  8 17  1  0
 11 12  1  0
 11 13  1  0
 11 14  1  0
 14 15  1  0
 14 16  1  0
 14 23  1  0
 17 18  1  0
 17 19  1  0
 17 20  1  0
 20 21  1  0
 20 22  1  0
 20 26  1  0
 23 24  1  0
 23 25  1  0
 23 29  1  0
 26 27  1  0
 26 28  1  0
 26 36  1  0
 29 30  1  0
 29 31  1  0
 29 32  1  0
 32 33  1  0
 32 34  1  0
 32 35  1  0
 36 37  1  0
 36 38  1  0
 36 39  1  0
M  CHG  1   1   1
M  RAD  1   1   2
M  END
$$$$

     RDKit          3D

 39 38  0  0  0  0  0  0  0  0999 V2000
   -0.3186    1.4629   -2.9547 S   0  0  0  0  0  2  0  0  0  0  0  0
    0.5004    1.5932   -4.9068 Si  0  0  0  0  0  4  0  0  0  0  0  0
    1.9410    1.2338   -4.8235 H   0  0  0  0  0  0  0  0  0  0  0  0
    0.4259    2.9214   -5.4824 H   0  0  0  0  0  0  0  0  0  0  0  0
   -1.6911    3.0294   -2.5188 Si  0  0  0  0  0  4  0  0  0  0  0  0
   -1.0431    4.1254   -1.7468 H   0  0  0  0  0  0  0  0  0  0  0  0
   -2.7199    2.4686   -1.5948 H   0  0  0  0  0  0  0  0  0  0  0  0
   -0.5641    0.1909   -6.3139 Si  0  0  0  0  0  4  0  0  0  0  0  0
   -0.8157    0.8479   -7.6048 H   0  0  0  0  0  0  0  0  0  0  0  0
    0.3703   -0.9335   -6.6057 H   0  0  0  0  0  0  0  0  0  0  0  0
   -2.7280    3.7989   -4.3034 Si  0  0  0  0  0  4  0  0  0  0  0  0
   -3.9930    4.4323   -3.8837 H   0  0  0  0  0  0  0  0  0  0  0  0
   -3.0662    2.6749   -5.1858 H   0  0  0  0  0  0  0  0  0  0  0  0
   -1.5341    5.3181   -5.4086 Si  0  0  0  0  0  4  0  0  0  0  0  0
   -1.9806    6.6735   -5.0123 H   0  0  0  0  0  0  0  0  0  0  0  0
   -0.1115    5.2325   -5.1192 H   0  0  0  0  0  0  0  0  0  0  0  0
   -2.3777   -0.6544   -5.3921 Si  0  0  0  0  0  4  0  0  0  0  0  0
   -2.5273   -0.0523   -4.0359 H   0  0  0  0  0  0  0  0  0  0  0  0
   -2.2735   -2.1161   -5.1558 H   0  0  0  0  0  0  0  0  0  0  0  0
   -4.2253   -0.2094   -6.5242 Si  0  0  0  0  0  4  0  0  0  0  0  0
   -4.5976    1.2229   -6.3400 H   0  0  0  0  0  0  0  0  0  0  0  0
   -5.3286   -0.9787   -5.8971 H   0  0  0  0  0  0  0  0  0  0  0  0
   -1.9931    5.0726   -7.5741 Si  0  0  0  0  0  4  0  0  0  0  0  0
   -3.4692    4.9900   -7.7022 H   0  0  0  0  0  0  0  0  0  0  0  0
   -1.3532    3.8911   -8.1207 H   0  0  0  0  0  0  0  0  0  0  0  0
   -4.0957   -0.6343   -8.6671 Si  0  0  0  0  0  4  0  0  0  0  0  0
   -4.1762    0.6198   -9.4703 H   0  0  0  0  0  0  0  0  0  0  0  0
   -5.2935   -1.4222   -9.0817 H   0  0  0  0  0  0  0  0  0  0  0  0
   -1.3355    6.8461   -8.7539 Si  0  0  0  0  0  4  0  0  0  0  0  0
    0.1308    6.9665   -8.7793 H   0  0  0  0  0  0  0  0  0  0  0  0
   -1.7623    6.6256  -10.1497 H   0  0  0  0  0  0  0  0  0  0  0  0
   -2.2991    8.7182   -8.0435 Si  0  0  0  0  0  4  0  0  0  0  0  0
   -2.8465    9.4991   -9.1863 H   0  0  0  0  0  0  0  0  0  0  0  0
   -1.2539    9.5746   -7.4438 H   0  0  0  0  0  0  0  0  0  0  0  0
   -3.3783    8.4149   -7.1261 H   0  0  0  0  0  0  0  0  0  0  0  0
   -2.3020   -1.7370   -9.2842 Si  0  0  0  0  0  4  0  0  0  0  0  0
   -1.9132   -1.3281  -10.6641 H   0  0  0  0  0  0  0  0  0  0  0  0
   -2.5643   -3.1933   -9.3695 H   0  0  0  0  0  0  0  0  0  0  0  0
   -1.1428   -1.5421   -8.4418 H   0  0  0  0  0  0  0  0  0  0  0  0
  1  2  1  0
  1  5  1  0
  2  3  1  0
  2  4  1  0
  2  8  1  0
  5  6  1  0
  5  7  1  0
  5 11  1  0
  8  9  1  0
  8 10  1  0
  8 17  1  0
 11 12  1  0
 11 13  1  0
 11 14  1  0
 14 15  1  0
 14 16  1  0
 14 23  1  0
 17 18  1  0
 17 19  1  0
 17 20  1  0
 20 21  1  0
 20 22  1  0
 20 26  1  0
 23 24  1  0
 23 25  1  0
 23 29  1  0
 26 27  1  0
 26 28  1  0
 26 36  1  0
 29 30  1  0
 29 31  1  0
 29 32  1  0
 32 33  1  0
 32 34  1  0
 32 35  1  0
 36 37  1  0
 36 38  1  0
 36 39  1  0
M  CHG  1   1   1
M  RAD  1   1   2
M  END
$$$$

     RDKit          3D

 39 38  0  0  0  0  0  0  0  0999 V2000
   -0.3186    1.4629   -2.9547 S   0  0  0  0  0  2  0  0  0  0  0  0
   -1.9300    2.8333   -2.7129 Si  0  0  0  0  0  4  0  0  0  0  0  0
   -1.5384    4.2245   -2.9909 H   0  0  0  0  0  0  0  0  0  0  0  0
   -2.3299    2.8020   -1.2770 H   0  0  0  0  0  0  0  0  0  0  0  0
    0.7309    1.7464   -4.7878 Si  0  0  0  0  0  4  0  0  0  0  0  0
   -0.1014    2.3108   -5.8426 H   0  0  0  0  0  0  0  0  0  0  0  0
    1.9313    2.5993   -4.6152 H   0  0  0  0  0  0  0  0  0  0  0  0
   -3.6985    2.2807   -3.9477 Si  0  0  0  0  0  4  0  0  0  0  0  0
   -3.4126    1.0810   -4.7516 H   0  0  0  0  0  0  0  0  0  0  0  0
   -4.8551    1.9324   -3.0763 H   0  0  0  0  0  0  0  0  0  0  0  0
    1.4507   -0.2606   -5.4877 Si  0  0  0  0  0  4  0  0  0  0  0  0
    1.7086   -1.1609   -4.3671 H   0  0  0  0  0  0  0  0  0  0  0  0
    0.3971   -0.8229   -6.3687 H   0  0  0  0  0  0  0  0  0  0  0  0
    3.2789   -0.0255   -6.7815 Si  0  0  0  0  0  4  0  0  0  0  0  0
    3.5438   -1.3278   -7.3947 H   0  0  0  0  0  0  0  0  0  0  0  0
    4.3896    0.4200   -5.9381 H   0  0  0  0  0  0  0  0  0  0  0  0
   -4.3565    3.9769   -5.2404 Si  0  0  0  0  0  4  0  0  0  0  0  0
   -5.7077    3.6554   -5.7414 H   0  0  0  0  0  0  0  0  0  0  0  0
   -4.4600    5.1690   -4.3888 H   0  0  0  0  0  0  0  0  0  0  0  0
   -2.9797    4.3280   -6.9307 Si  0  0  0  0  0  4  0  0  0  0  0  0
   -3.0402    5.7624   -7.2972 H   0  0  0  0  0  0  0  0  0  0  0  0
   -1.6061    4.0506   -6.5279 H   0  0  0  0  0  0  0  0  0  0  0  0
    2.7723    1.4908   -8.3516 Si  0  0  0  0  0  4  0  0  0  0  0  0
    1.8795    0.8394   -9.3316 H   0  0  0  0  0  0  0  0  0  0  0  0
    2.0410    2.5873   -7.6792 H   0  0  0  0  0  0  0  0  0  0  0  0
   -3.5582    3.1674   -8.7494 Si  0  0  0  0  0  4  0  0  0  0  0  0
   -2.6245    3.5657   -9.8298 H   0  0  0  0  0  0  0  0  0  0  0  0
   -4.9218    3.5587   -9.1246 H   0  0  0  0  0  0  0  0  0  0  0  0
    4.5944    2.3283   -9.2939 Si  0  0  0  0  0  4  0  0  0  0  0  0
    5.6779    1.3239   -9.2988 H   0  0  0  0  0  0  0  0  0  0  0  0
    4.2587    2.7383  -10.6622 H   0  0  0  0  0  0  0  0  0  0  0  0
    5.2020    4.1605   -8.1510 Si  0  0  0  0  0  4  0  0  0  0  0  0
    4.1654    4.5479   -7.1939 H   0  0  0  0  0  0  0  0  0  0  0  0
    5.4449    5.2740   -9.0708 H   0  0  0  0  0  0  0  0  0  0  0  0
    6.4256    3.8663   -7.3952 H   0  0  0  0  0  0  0  0  0  0  0  0
   -3.4099    0.9837   -8.4197 Si  0  0  0  0  0  4  0  0  0  0  0  0
   -3.8369    0.5800   -7.0814 H   0  0  0  0  0  0  0  0  0  0  0  0
   -4.2923    0.3086   -9.3829 H   0  0  0  0  0  0  0  0  0  0  0  0
   -2.0384    0.4920   -8.6496 H   0  0  0  0  0  0  0  0  0  0  0  0
  1  2  1  0
  1  5  1  0
  2  3  1  0
  2  4  1  0
  2  8  1  0
  5  6  1  0
  5  7  1  0
  5 11  1  0
  8  9  1  0
  8 10  1  0
  8 17  1  0
 11 12  1  0
 11 13  1  0
 11 14  1  0
 14 15  1  0
 14 16  1  0
 14 23  1  0
 17 18  1  0
 17 19  1  0
 17 20  1  0
 20 21  1  0
 20 22  1  0
 20 26  1  0
 23 24  1  0
 23 25  1  0
 23 29  1  0
 26 27  1  0
 26 28  1  0
 26 36  1  0
 29 30  1  0
 29 31  1  0
 29 32  1  0
 32 33  1  0
 32 34  1  0
 32 35  1  0
 36 37  1  0
 36 38  1  0
 36 39  1  0
M  CHG  1   1   1
M  RAD  1   1   2
M  END
$$$$

     RDKit          3D

 39 38  0  0  0  0  0  0  0  0999 V2000
   -0.3186    1.4629   -2.9547 S   0  0  0  0  0  2  0  0  0  0  0  0
    0.9930    0.4496   -4.2789 Si  0  0  0  0  0  4  0  0  0  0  0  0
    2.2365    0.1257   -3.5235 H   0  0  0  0  0  0  0  0  0  0  0  0
    1.3929    1.2395   -5.4277 H   0  0  0  0  0  0  0  0  0  0  0  0
   -0.8666    3.3958   -3.6538 Si  0  0  0  0  0  4  0  0  0  0  0  0
   -1.7150    4.0274   -2.6218 H   0  0  0  0  0  0  0  0  0  0  0  0
    0.2822    4.2773   -3.8572 H   0  0  0  0  0  0  0  0  0  0  0  0
    0.0635   -1.4981   -4.8522 Si  0  0  0  0  0  4  0  0  0  0  0  0
    0.2296   -2.4187   -3.7045 H   0  0  0  0  0  0  0  0  0  0  0  0
   -1.3698   -1.2755   -5.0247 H   0  0  0  0  0  0  0  0  0  0  0  0
   -2.0642    3.3075   -5.5308 Si  0  0  0  0  0  4  0  0  0  0  0  0
   -2.4561    4.6908   -5.8671 H   0  0  0  0  0  0  0  0  0  0  0  0
   -3.2730    2.5164   -5.3668 H   0  0  0  0  0  0  0  0  0  0  0  0
   -0.8124    2.5576   -7.2280 Si  0  0  0  0  0  4  0  0  0  0  0  0
   -0.4639    1.1776   -6.9470 H   0  0  0  0  0  0  0  0  0  0  0  0
   -1.5881    2.6036   -8.4592 H   0  0  0  0  0  0  0  0  0  0  0  0
    1.0009   -2.3726   -6.6541 Si  0  0  0  0  0  4  0  0  0  0  0  0
    0.8026   -3.8486   -6.5934 H   0  0  0  0  0  0  0  0  0  0  0  0
    2.4446   -2.1527   -6.6703 H   0  0  0  0  0  0  0  0  0  0  0  0
    0.0233   -1.6729   -8.5363 Si  0  0  0  0  0  4  0  0  0  0  0  0
   -1.1255   -0.8158   -8.1261 H   0  0  0  0  0  0  0  0  0  0  0  0
   -0.5379   -2.7725   -9.3115 H   0  0  0  0  0  0  0  0  0  0  0  0
    0.9843    3.8634   -7.4045 Si  0  0  0  0  0  4  0  0  0  0  0  0
    1.0842    4.7793   -6.2515 H   0  0  0  0  0  0  0  0  0  0  0  0
    2.1928    3.0150   -7.3662 H   0  0  0  0  0  0  0  0  0  0  0  0
    1.3987   -0.3963   -9.7266 Si  0  0  0  0  0  4  0  0  0  0  0  0
    1.3335   -0.7847  -11.1384 H   0  0  0  0  0  0  0  0  0  0  0  0
    1.0259    1.0327   -9.6617 H   0  0  0  0  0  0  0  0  0  0  0  0
    0.9466    4.9676   -9.3362 Si  0  0  0  0  0  4  0  0  0  0  0  0
    1.0071    6.3993   -9.0412 H   0  0  0  0  0  0  0  0  0  0  0  0
   -0.3232    4.6907  -10.0440 H   0  0  0  0  0  0  0  0  0  0  0  0
    2.6591    4.3654  -10.6507 Si  0  0  0  0  0  4  0  0  0  0  0  0
    2.1846    4.0810  -12.0213 H   0  0  0  0  0  0  0  0  0  0  0  0
    3.6221    5.4595  -10.7437 H   0  0  0  0  0  0  0  0  0  0  0  0
    3.3671    3.2085  -10.0752 H   0  0  0  0  0  0  0  0  0  0  0  0
    3.5063   -0.5563   -9.0042 Si  0  0  0  0  0  4  0  0  0  0  0  0
    3.8141   -1.8988   -8.5028 H   0  0  0  0  0  0  0  0  0  0  0  0
    4.3821   -0.3382  -10.1846 H   0  0  0  0  0  0  0  0  0  0  0  0
    3.8148    0.4876   -8.0210 H   0  0  0  0  0  0  0  0  0  0  0  0
  1  2  1  0
  1  5  1  0
  2  3  1  0
  2  4  1  0
  2  8  1  0
  5  6  1  0
  5  7  1  0
  5 11  1  0
  8  9  1  0
  8 10  1  0
  8 17  1  0
 11 12  1  0
 11 13  1  0
 11 14  1  0
 14 15  1  0
 14 16  1  0
 14 23  1  0
 17 18  1  0
 17 19  1  0
 17 20  1  0
 20 21  1  0
 20 22  1  0
 20 26  1  0
 23 24  1  0
 23 25  1  0
 23 29  1  0
 26 27  1  0
 26 28  1  0
 26 36  1  0
 29 30  1  0
 29 31  1  0
 29 32  1  0
 32 33  1  0
 32 34  1  0
 32 35  1  0
 36 37  1  0
 36 38  1  0
 36 39  1  0
M  CHG  1   1   1
M  RAD  1   1   2
M  END
$$$$

     RDKit          3D

 39 38  0  0  0  0  0  0  0  0999 V2000
   -0.3186    1.4629   -2.9547 S   0  0  0  0  0  2  0  0  0  0  0  0
   -0.0891    3.5825   -2.8997 Si  0  0  0  0  0  4  0  0  0  0  0  0
    0.9294    3.9815   -1.9294 H   0  0  0  0  0  0  0  0  0  0  0  0
   -1.3928    4.1576   -2.4860 H   0  0  0  0  0  0  0  0  0  0  0  0
    1.5719    0.4690   -3.1786 Si  0  0  0  0  0  4  0  0  0  0  0  0
    1.8057   -0.3986   -2.0251 H   0  0  0  0  0  0  0  0  0  0  0  0
    2.6770    1.4209   -3.3291 H   0  0  0  0  0  0  0  0  0  0  0  0
    0.4315    4.4369   -4.8732 Si  0  0  0  0  0  4  0  0  0  0  0  0
   -0.1857    3.7139   -5.9923 H   0  0  0  0  0  0  0  0  0  0  0  0
   -0.1207    5.8206   -4.9267 H   0  0  0  0  0  0  0  0  0  0  0  0
    1.4390   -0.7470   -5.0750 Si  0  0  0  0  0  4  0  0  0  0  0  0
    0.5591   -1.9035   -4.7452 H   0  0  0  0  0  0  0  0  0  0  0  0
    2.7526   -1.1725   -5.5247 H   0  0  0  0  0  0  0  0  0  0  0  0
    0.3810    0.5142   -6.5700 Si  0  0  0  0  0  4  0  0  0  0  0  0
   -0.9344    0.8842   -5.9746 H   0  0  0  0  0  0  0  0  0  0  0  0
    1.1436    1.7474   -6.7831 H   0  0  0  0  0  0  0  0  0  0  0  0
    2.6324    4.6096   -5.1675 Si  0  0  0  0  0  4  0  0  0  0  0  0
    3.0852    3.7921   -6.2999 H   0  0  0  0  0  0  0  0  0  0  0  0
    3.2857    4.0636   -3.9545 H   0  0  0  0  0  0  0  0  0  0  0  0
    3.2923    6.6988   -5.4245 Si  0  0  0  0  0  4  0  0  0  0  0  0
    4.6342    6.7136   -6.0534 H   0  0  0  0  0  0  0  0  0  0  0  0
    3.3798    7.3383   -4.1181 H   0  0  0  0  0  0  0  0  0  0  0  0
    0.0216   -0.5416   -8.4742 Si  0  0  0  0  0  4  0  0  0  0  0  0
   -0.6270   -1.8184   -8.2015 H   0  0  0  0  0  0  0  0  0  0  0  0
    1.3156   -0.7257   -9.1589 H   0  0  0  0  0  0  0  0  0  0  0  0
    1.9328    7.8871   -6.7089 Si  0  0  0  0  0  4  0  0  0  0  0  0
    2.6328    9.1615   -7.0398 H   0  0  0  0  0  0  0  0  0  0  0  0
    0.6987    8.2763   -6.0102 H   0  0  0  0  0  0  0  0  0  0  0  0
   -1.3597    0.7270   -9.7238 Si  0  0  0  0  0  4  0  0  0  0  0  0
   -1.8317    0.0076  -10.8940 H   0  0  0  0  0  0  0  0  0  0  0  0
   -0.6490    1.9686  -10.0581 H   0  0  0  0  0  0  0  0  0  0  0  0
   -3.1037    1.2923   -8.4299 Si  0  0  0  0  0  4  0  0  0  0  0  0
   -4.2756    1.5980   -9.2698 H   0  0  0  0  0  0  0  0  0  0  0  0
   -2.7004    2.4246   -7.5985 H   0  0  0  0  0  0  0  0  0  0  0  0
   -3.4348    0.1301   -7.5978 H   0  0  0  0  0  0  0  0  0  0  0  0
    1.5076    6.8654   -8.6453 Si  0  0  0  0  0  4  0  0  0  0  0  0
    0.2056    7.3228   -9.1505 H   0  0  0  0  0  0  0  0  0  0  0  0
    2.5749    7.2086   -9.6042 H   0  0  0  0  0  0  0  0  0  0  0  0
    1.5356    5.4122   -8.4468 H   0  0  0  0  0  0  0  0  0  0  0  0
  1  2  1  0
  1  5  1  0
  2  3  1  0
  2  4  1  0
  2  8  1  0
  5  6  1  0
  5  7  1  0
  5 11  1  0
  8  9  1  0
  8 10  1  0
  8 17  1  0
 11 12  1  0
 11 13  1  0
 11 14  1  0
 14 15  1  0
 14 16  1  0
 14 23  1  0
 17 18  1  0
 17 19  1  0
 17 20  1  0
 20 21  1  0
 20 22  1  0
 20 26  1  0
 23 24  1  0
 23 25  1  0
 23 29  1  0
 26 27  1  0
 26 28  1  0
 26 36  1  0
 29 30  1  0
 29 31  1  0
 29 32  1  0
 32 33  1  0
 32 34  1  0
 32 35  1  0
 36 37  1  0
 36 38  1  0
 36 39  1  0
M  CHG  1   1   1
M  RAD  1   1   2
M  END
$$$$
