
     RDKit          3D

 39 38  0  0  0  0  0  0  0  0999 V2000
    0.0340    0.0340   -4.1331 S   0  0  0  0  0  2  0  0  0  0  0  0
    2.1133   -0.0992   -4.5939 Si  0  0  0  0  0  4  0  0  0  0  0  0
    2.9439    0.0691   -3.3938 H   0  0  0  0  0  0  0  0  0  0  0  0
    2.3798   -1.4582   -5.1069 H   0  0  0  0  0  0  0  0  0  0  0  0
   -1.0600   -1.4554   -5.1917 Si  0  0  0  0  0  4  0  0  0  0  0  0
   -0.2438   -2.0007   -6.3102 H   0  0  0  0  0  0  0  0  0  0  0  0
   -1.4260   -2.5891   -4.2964 H   0  0  0  0  0  0  0  0  0  0  0  0
    2.7074    1.3470   -6.1859 Si  0  0  0  0  0  4  0  0  0  0  0  0
    4.1921    1.4215   -6.1679 H   0  0  0  0  0  0  0  0  0  0  0  0
    2.2180    2.6955   -5.9228 H   0  0  0  0  0  0  0  0  0  0  0  0
   -2.9350   -0.6583   -6.0565 Si  0  0  0  0  0  4  0  0  0  0  0  0
   -4.1290   -1.3788   -5.6017 H   0  0  0  0  0  0  0  0  0  0  0  0
   -3.0876    0.7407   -5.5670 H   0  0  0  0  0  0  0  0  0  0  0  0
   -2.8670   -0.5606   -8.2772 Si  0  0  0  0  0  4  0  0  0  0  0  0
   -1.7897    0.4029   -8.6415 H   0  0  0  0  0  0  0  0  0  0  0  0
   -4.1242    0.0575   -8.7359 H   0  0  0  0  0  0  0  0  0  0  0  0
    1.9903    0.5706   -8.1384 Si  0  0  0  0  0  4  0  0  0  0  0  0
    3.1517   -0.0554   -8.8298 H   0  0  0  0  0  0  0  0  0  0  0  0
    1.0075   -0.5051   -7.9469 H   0  0  0  0  0  0  0  0  0  0  0  0
    1.1814    2.1470   -9.4465 Si  0  0  0  0  0  4  0  0  0  0  0  0
    2.2314    2.6236  -10.3760 H   0  0  0  0  0  0  0  0  0  0  0  0
    0.1093    1.5653  -10.2818 H   0  0  0  0  0  0  0  0  0  0  0  0
   -2.5181   -2.5077   -9.2223 Si  0  0  0  0  0  4  0  0  0  0  0  0
   -3.6594   -2.8017  -10.1354 H   0  0  0  0  0  0  0  0  0  0  0  0
   -1.3279   -2.4190  -10.1151 H   0  0  0  0  0  0  0  0  0  0  0  0
    0.3677    3.8774   -8.3397 Si  0  0  0  0  0  4  0  0  0  0  0  0
    1.3910    4.9320   -8.1447 H   0  0  0  0  0  0  0  0  0  0  0  0
   -0.6878    4.4989   -9.1875 H   0  0  0  0  0  0  0  0  0  0  0  0
   -2.3140   -4.1799   -7.8093 Si  0  0  0  0  0  4  0  0  0  0  0  0
   -1.9519   -3.7921   -6.4614 H   0  0  0  0  0  0  0  0  0  0  0  0
   -1.2351   -5.0803   -8.3065 H   0  0  0  0  0  0  0  0  0  0  0  0
   -4.1806   -5.4073   -7.6973 Si  0  0  0  0  0  4  0  0  0  0  0  0
   -5.1968   -4.8135   -8.5840 H   0  0  0  0  0  0  0  0  0  0  0  0
   -3.9603   -6.7805   -8.1552 H   0  0  0  0  0  0  0  0  0  0  0  0
   -4.7116   -5.4564   -6.3327 H   0  0  0  0  0  0  0  0  0  0  0  0
   -0.5815    3.2976   -6.4190 Si  0  0  0  0  0  4  0  0  0  0  0  0
   -0.7617    1.8518   -6.3833 H   0  0  0  0  0  0  0  0  0  0  0  0
    0.1881    3.7860   -5.2495 H   0  0  0  0  0  0  0  0  0  0  0  0
   -1.9342    3.9033   -6.2799 H   0  0  0  0  0  0  0  0  0  0  0  0
  1  2  1  0
  1  5  1  0
  2  3  1  0
  2  4  1  0
  2  8  1  0
  5  6  1  0
  5  7  1  0
  5 11  1  0
  8  9  1  0
  8 10  1  0
  8 17  1  0
 11 12  1  0
 11 13  1  0
 11 14  1  0
 14 15  1  0
 14 16  1  0
 14 23  1  0
 17 18  1  0
 17 19  1  0
 17 20  1  0
 20 21  1  0
 20 22  1  0
 20 26  1  0
 23 24  1  0
 23 25  1  0
 23 29  1  0
 26 27  1  0
 26 28  1  0
 26 36  1  0
 29 30  1  0
 29 31  1  0
 29 32  1  0
 32 33  1  0
 32 34  1  0
 32 35  1  0
 36 37  1  0
 36 38  1  0
 36 39  1  0
M  CHG  1   1   1
M  RAD  1   1   2
M  END
$$$$

     RDKit          3D

 39 38  0  0  0  0  0  0  0  0999 V2000
    0.0340    0.0340   -4.1331 S   0  0  0  0  0  2  0  0  0  0  0  0
   -1.6693    0.9939   -5.0403 Si  0  0  0  0  0  4  0  0  0  0  0  0
   -2.4694    1.6220   -3.9792 H   0  0  0  0  0  0  0  0  0  0  0  0
   -2.4511   -0.0225   -5.7499 H   0  0  0  0  0  0  0  0  0  0  0  0
    1.4919   -0.3997   -5.6557 Si  0  0  0  0  0  4  0  0  0  0  0  0
    1.5951    0.7455   -6.5768 H   0  0  0  0  0  0  0  0  0  0  0  0
    2.8036   -0.6949   -5.0810 H   0  0  0  0  0  0  0  0  0  0  0  0
   -0.9121    2.5747   -6.4224 Si  0  0  0  0  0  4  0  0  0  0  0  0
    0.0945    1.9827   -7.3033 H   0  0  0  0  0  0  0  0  0  0  0  0
   -0.3392    3.6512   -5.5922 H   0  0  0  0  0  0  0  0  0  0  0  0
    0.7609   -2.1689   -6.8040 Si  0  0  0  0  0  4  0  0  0  0  0  0
    0.3409   -3.2597   -5.9347 H   0  0  0  0  0  0  0  0  0  0  0  0
   -0.4315   -1.7324   -7.5726 H   0  0  0  0  0  0  0  0  0  0  0  0
    2.2826   -2.8412   -8.3033 Si  0  0  0  0  0  4  0  0  0  0  0  0
    3.6204   -2.8903   -7.7492 H   0  0  0  0  0  0  0  0  0  0  0  0
    1.8238   -4.1718   -8.7945 H   0  0  0  0  0  0  0  0  0  0  0  0
   -2.5568    3.4646   -7.6303 Si  0  0  0  0  0  4  0  0  0  0  0  0
   -2.0798    4.7334   -8.2153 H   0  0  0  0  0  0  0  0  0  0  0  0
   -2.9303    2.5917   -8.7515 H   0  0  0  0  0  0  0  0  0  0  0  0
   -4.3345    3.9130   -6.3585 Si  0  0  0  0  0  4  0  0  0  0  0  0
   -3.8500    4.4722   -5.0770 H   0  0  0  0  0  0  0  0  0  0  0  0
   -5.1567    4.9274   -7.0281 H   0  0  0  0  0  0  0  0  0  0  0  0
    2.1738   -1.4693  -10.0903 Si  0  0  0  0  0  4  0  0  0  0  0  0
    2.4983   -2.1950  -11.3215 H   0  0  0  0  0  0  0  0  0  0  0  0
    3.2162   -0.4408   -9.9123 H   0  0  0  0  0  0  0  0  0  0  0  0
   -5.5395    2.0823   -5.9785 Si  0  0  0  0  0  4  0  0  0  0  0  0
   -6.9424    2.4851   -5.7988 H   0  0  0  0  0  0  0  0  0  0  0  0
   -5.0577    1.4054   -4.7534 H   0  0  0  0  0  0  0  0  0  0  0  0
    0.1377   -0.6026  -10.1265 Si  0  0  0  0  0  4  0  0  0  0  0  0
   -0.0463    0.1929   -8.9025 H   0  0  0  0  0  0  0  0  0  0  0  0
   -0.8346   -1.6946  -10.1286 H   0  0  0  0  0  0  0  0  0  0  0  0
   -0.2169    0.6774  -11.8964 Si  0  0  0  0  0  4  0  0  0  0  0  0
    0.8024    1.7163  -12.0542 H   0  0  0  0  0  0  0  0  0  0  0  0
   -1.5071    1.3827  -11.6904 H   0  0  0  0  0  0  0  0  0  0  0  0
   -0.3886   -0.1302  -13.1194 H   0  0  0  0  0  0  0  0  0  0  0  0
   -5.4311    0.6587   -7.7051 Si  0  0  0  0  0  4  0  0  0  0  0  0
   -5.0815   -0.6870   -7.2345 H   0  0  0  0  0  0  0  0  0  0  0  0
   -6.7157    0.6422   -8.4388 H   0  0  0  0  0  0  0  0  0  0  0  0
   -4.3819    1.0817   -8.6581 H   0  0  0  0  0  0  0  0  0  0  0  0
  1  2  1  0
  1  5  1  0
  2  3  1  0
  2  4  1  0
  2  8  1  0
  5  6  1  0
  5  7  1  0
  5 11  1  0
  8  9  1  0
  8 10  1  0
  8 17  1  0
 11 12  1  0
 11 13  1  0
 11 14  1  0
 14 15  1  0
 14 16  1  0
 14 23  1  0
 17 18  1  0
 17 19  1  0
 17 20  1  0
 20 21  1  0
 20 22  1  0
 20 26  1  0
 23 24  1  0
 23 25  1  0
 23 29  1  0
 26 27  1  0
 26 28  1  0
 26 36  1  0
 29 30  1  0
 29 31  1  0
 29 32  1  0
 32 33  1  0
 32 34  1  0
 32 35  1  0
 36 37  1  0
 36 38  1  0
 36 39  1  0
M  CHG  1   1   1
M  RAD  1   1   2
M  END
$$$$

     RDKit          3D

 39 38  0  0  0  0  0  0  0  0999 V2000
    0.0340    0.0340   -4.1331 S   0  0  0  0  0  2  0  0  0  0  0  0
   -0.9083   -1.6345   -5.1199 Si  0  0  0  0  0  4  0  0  0  0  0  0
   -1.4987   -2.5079   -4.0957 H   0  0  0  0  0  0  0  0  0  0  0  0
    0.1099   -2.3518   -5.8924 H   0  0  0  0  0  0  0  0  0  0  0  0
    0.4075    1.5865   -5.5762 Si  0  0  0  0  0  4  0  0  0  0  0  0
   -0.7575    1.7178   -6.4683 H   0  0  0  0  0  0  0  0  0  0  0  0
    0.6869    2.8690   -4.9317 H   0  0  0  0  0  0  0  0  0  0  0  0
   -2.5312   -0.8333   -6.4262 Si  0  0  0  0  0  4  0  0  0  0  0  0
   -1.9776    0.2352   -7.2579 H   0  0  0  0  0  0  0  0  0  0  0  0
   -3.6027   -0.3327   -5.5444 H   0  0  0  0  0  0  0  0  0  0  0  0
    2.1684    0.9616   -6.7975 Si  0  0  0  0  0  4  0  0  0  0  0  0
    3.2845    0.5159   -5.9743 H   0  0  0  0  0  0  0  0  0  0  0  0
    1.7415   -0.1936   -7.6259 H   0  0  0  0  0  0  0  0  0  0  0  0
    2.7795    2.5815   -8.2179 Si  0  0  0  0  0  4  0  0  0  0  0  0
    2.8120    3.8859   -7.5880 H   0  0  0  0  0  0  0  0  0  0  0  0
    4.1094    2.1809   -8.7594 H   0  0  0  0  0  0  0  0  0  0  0  0
   -3.4107   -2.4244   -7.7110 Si  0  0  0  0  0  4  0  0  0  0  0  0
   -4.7003   -1.9421   -8.2438 H   0  0  0  0  0  0  0  0  0  0  0  0
   -2.5526   -2.7135   -8.8680 H   0  0  0  0  0  0  0  0  0  0  0  0
   -3.7972   -4.2819   -6.5367 Si  0  0  0  0  0  4  0  0  0  0  0  0
   -4.3410   -3.8844   -5.2191 H   0  0  0  0  0  0  0  0  0  0  0  0
   -4.8074   -5.0859   -7.2341 H   0  0  0  0  0  0  0  0  0  0  0  0
    1.3752    2.5463   -9.9826 Si  0  0  0  0  0  4  0  0  0  0  0  0
    2.0697    2.9570  -11.2060 H   0  0  0  0  0  0  0  0  0  0  0  0
    0.3292    3.5541   -9.7254 H   0  0  0  0  0  0  0  0  0  0  0  0
   -1.9349   -5.4668   -6.2612 Si  0  0  0  0  0  4  0  0  0  0  0  0
   -2.3051   -6.8862   -6.1560 H   0  0  0  0  0  0  0  0  0  0  0  0
   -1.2441   -5.0419   -5.0229 H   0  0  0  0  0  0  0  0  0  0  0  0
    0.5502    0.4974  -10.1211 Si  0  0  0  0  0  4  0  0  0  0  0  0
   -0.2171    0.2258   -8.8954 H   0  0  0  0  0  0  0  0  0  0  0  0
    1.6617   -0.4493  -10.1999 H   0  0  0  0  0  0  0  0  0  0  0  0
   -0.7569    0.2178  -11.8847 Si  0  0  0  0  0  4  0  0  0  0  0  0
   -1.8194    1.2217  -11.9637 H   0  0  0  0  0  0  0  0  0  0  0  0
   -1.4312   -1.0972  -11.7410 H   0  0  0  0  0  0  0  0  0  0  0  0
    0.0298    0.1346  -13.1303 H   0  0  0  0  0  0  0  0  0  0  0  0
   -0.5481   -5.2280   -8.0046 Si  0  0  0  0  0  4  0  0  0  0  0  0
    0.7991   -4.8770   -7.5394 H   0  0  0  0  0  0  0  0  0  0  0  0
   -0.5197   -6.4674   -8.8119 H   0  0  0  0  0  0  0  0  0  0  0  0
   -1.0114   -4.1350   -8.8870 H   0  0  0  0  0  0  0  0  0  0  0  0
  1  2  1  0
  1  5  1  0
  2  3  1  0
  2  4  1  0
  2  8  1  0
  5  6  1  0
  5  7  1  0
  5 11  1  0
  8  9  1  0
  8 10  1  0
  8 17  1  0
 11 12  1  0
 11 13  1  0
 11 14  1  0
 14 15  1  0
 14 16  1  0
 14 23  1  0
 17 18  1  0
 17 19  1  0
 17 20  1  0
 20 21  1  0
 20 22  1  0
 20 26  1  0
 23 24  1  0
 23 25  1  0
 23 29  1  0
 26 27  1  0
 26 28  1  0
 26 36  1  0
 29 30  1  0
 29 31  1  0
 29 32  1  0
 32 33  1  0
 32 34  1  0
 32 35  1  0
 36 37  1  0
 36 38  1  0
 36 39  1  0
M  CHG  1   1   1
M  RAD  1   1   2
M  END
$$$$

     RDKit          3D

 39 38  0  0  0  0  0  0  0  0999 V2000
    0.0340    0.0340   -4.1331 S   0  0  0  0  0  2  0  0  0  0  0  0
   -0.3016    1.4374   -5.7441 Si  0  0  0  0  0  4  0  0  0  0  0  0
   -1.6917    1.4263   -6.1793 H   0  0  0  0  0  0  0  0  0  0  0  0
   -0.0134    2.7833   -5.1727 H   0  0  0  0  0  0  0  0  0  0  0  0
   -1.4846   -1.4585   -4.1209 Si  0  0  0  0  0  4  0  0  0  0  0  0
   -1.2400   -2.3551   -2.9855 H   0  0  0  0  0  0  0  0  0  0  0  0
   -2.8348   -0.8649   -3.9982 H   0  0  0  0  0  0  0  0  0  0  0  0
    1.1237    1.0813   -7.3900 Si  0  0  0  0  0  4  0  0  0  0  0  0
    2.1978    0.1803   -6.8800 H   0  0  0  0  0  0  0  0  0  0  0  0
    1.8316    2.3377   -7.7687 H   0  0  0  0  0  0  0  0  0  0  0  0
   -1.4084   -2.6520   -6.0112 Si  0  0  0  0  0  4  0  0  0  0  0  0
   -1.5809   -1.7280   -7.1245 H   0  0  0  0  0  0  0  0  0  0  0  0
   -0.1279   -3.3528   -6.0914 H   0  0  0  0  0  0  0  0  0  0  0  0
   -3.1342   -4.0841   -6.0569 Si  0  0  0  0  0  4  0  0  0  0  0  0
   -2.6047   -5.4357   -5.8677 H   0  0  0  0  0  0  0  0  0  0  0  0
   -4.0359   -3.7817   -4.9399 H   0  0  0  0  0  0  0  0  0  0  0  0
    0.2350    0.1634   -9.1676 Si  0  0  0  0  0  4  0  0  0  0  0  0
    0.9614    0.6111  -10.3737 H   0  0  0  0  0  0  0  0  0  0  0  0
    0.3927   -1.3008   -9.1085 H   0  0  0  0  0  0  0  0  0  0  0  0
   -1.9170    0.5983   -9.4408 Si  0  0  0  0  0  4  0  0  0  0  0  0
   -2.2992    0.0702  -10.7816 H   0  0  0  0  0  0  0  0  0  0  0  0
   -2.7618   -0.1294   -8.4729 H   0  0  0  0  0  0  0  0  0  0  0  0
   -4.2024   -3.9573   -8.0215 Si  0  0  0  0  0  4  0  0  0  0  0  0
   -4.1603   -2.5564   -8.4547 H   0  0  0  0  0  0  0  0  0  0  0  0
   -5.6106   -4.3581   -7.8950 H   0  0  0  0  0  0  0  0  0  0  0  0
   -2.3783    2.7549   -9.4186 Si  0  0  0  0  0  4  0  0  0  0  0  0
   -2.4591    3.2887   -8.0440 H   0  0  0  0  0  0  0  0  0  0  0  0
   -1.4318    3.4914  -10.2462 H   0  0  0  0  0  0  0  0  0  0  0  0
   -3.1214   -5.2082   -9.5181 Si  0  0  0  0  0  4  0  0  0  0  0  0
   -4.0854   -5.6930  -10.5263 H   0  0  0  0  0  0  0  0  0  0  0  0
   -2.4422   -6.3101   -8.8388 H   0  0  0  0  0  0  0  0  0  0  0  0
   -1.6177   -3.8938  -10.5436 Si  0  0  0  0  0  4  0  0  0  0  0  0
   -1.2912   -4.5206  -11.8258 H   0  0  0  0  0  0  0  0  0  0  0  0
   -0.3997   -3.8156   -9.7278 H   0  0  0  0  0  0  0  0  0  0  0  0
   -2.1739   -2.5718  -10.8244 H   0  0  0  0  0  0  0  0  0  0  0  0
   -4.4288    3.0339  -10.3158 Si  0  0  0  0  0  4  0  0  0  0  0  0
   -4.4993    2.3980  -11.6442 H   0  0  0  0  0  0  0  0  0  0  0  0
   -4.8060    4.4406  -10.3424 H   0  0  0  0  0  0  0  0  0  0  0  0
   -5.4139    2.3058   -9.4675 H   0  0  0  0  0  0  0  0  0  0  0  0
  1  2  1  0
  1  5  1  0
  2  3  1  0
  2  4  1  0
  2  8  1  0
  5  6  1  0
  5  7  1  0
  5 11  1  0
  8  9  1  0
  8 10  1  0
  8 17  1  0
 11 12  1  0
 11 13  1  0
 11 14  1  0
 14 15  1  0
 14 16  1  0
 14 23  1  0
 17 18  1  0
 17 19  1  0
 17 20  1  0
 20 21  1  0
 20 22  1  0
 20 26  1  0
 23 24  1  0
 23 25  1  0
 23 29  1  0
 26 27  1  0
 26 28  1  0
 26 36  1  0
 29 30  1  0
 29 31  1  0
 29 32  1  0
 32 33  1  0
 32 34  1  0
 32 35  1  0
 36 37  1  0
 36 38  1  0
 36 39  1  0
M  CHG  1   1   1
M  RAD  1   1   2
M  END
$$$$
