
     RDKit          3D

 39 38  0  0  0  0  0  0  0  0999 V2000
   -0.0002   -0.0007    3.1926 S   0  0  0  0  0  2  0  0  0  0  0  0
    2.0159    0.5125    3.7876 Si  0  0  0  0  0  4  0  0  0  0  0  0
    2.8838    0.6313    2.6220 H   0  0  0  0  0  0  0  0  0  0  0  0
    1.9227    1.8276    4.4672 H   0  0  0  0  0  0  0  0  0  0  0  0
   -0.8013   -1.5164    4.4660 Si  0  0  0  0  0  4  0  0  0  0  0  0
   -1.8097   -2.2628    3.7003 H   0  0  0  0  0  0  0  0  0  0  0  0
    0.2243   -2.4865    4.8822 H   0  0  0  0  0  0  0  0  0  0  0  0
    2.7802   -1.0223    5.1765 Si  0  0  0  0  0  4  0  0  0  0  0  0
    2.2606   -2.3630    4.9117 H   0  0  0  0  0  0  0  0  0  0  0  0
    2.4371   -0.7024    6.5886 H   0  0  0  0  0  0  0  0  0  0  0  0
   -1.7035   -0.6326    6.3150 Si  0  0  0  0  0  4  0  0  0  0  0  0
   -0.9218   -0.9978    7.5161 H   0  0  0  0  0  0  0  0  0  0  0  0
   -3.1095   -1.0422    6.4746 H   0  0  0  0  0  0  0  0  0  0  0  0
   -1.6559    1.6023    6.1619 Si  0  0  0  0  0  4  0  0  0  0  0  0
   -1.5319    1.9914    4.7489 H   0  0  0  0  0  0  0  0  0  0  0  0
   -2.8722    2.1919    6.7291 H   0  0  0  0  0  0  0  0  0  0  0  0
    5.0242   -1.1665    5.1059 Si  0  0  0  0  0  4  0  0  0  0  0  0
    5.6058    0.1909    5.2850 H   0  0  0  0  0  0  0  0  0  0  0  0
    5.4878   -1.8164    3.8998 H   0  0  0  0  0  0  0  0  0  0  0  0
    5.6108   -2.3247    6.9522 Si  0  0  0  0  0  4  0  0  0  0  0  0
    4.7310   -3.5275    6.9649 H   0  0  0  0  0  0  0  0  0  0  0  0
    6.9964   -2.7449    6.8936 H   0  0  0  0  0  0  0  0  0  0  0  0
    0.1045    2.4020    7.3017 Si  0  0  0  0  0  4  0  0  0  0  0  0
    1.0364    1.2848    7.5285 H   0  0  0  0  0  0  0  0  0  0  0  0
    0.7478    3.4669    6.5207 H   0  0  0  0  0  0  0  0  0  0  0  0
    5.1523   -1.0215    8.6863 Si  0  0  0  0  0  4  0  0  0  0  0  0
    5.9193    0.2135    8.5568 H   0  0  0  0  0  0  0  0  0  0  0  0
    3.7191   -0.6773    8.6289 H   0  0  0  0  0  0  0  0  0  0  0  0
   -0.5233    3.2240    9.2699 Si  0  0  0  0  0  4  0  0  0  0  0  0
   -1.6919    4.0764    9.0667 H   0  0  0  0  0  0  0  0  0  0  0  0
    0.5790    4.0212    9.8033 H   0  0  0  0  0  0  0  0  0  0  0  0
   -0.9842    1.6098   10.7355 Si  0  0  0  0  0  4  0  0  0  0  0  0
   -1.7616    0.5274   10.0996 H   0  0  0  0  0  0  0  0  0  0  0  0
    0.2468    1.0624   11.3104 H   0  0  0  0  0  0  0  0  0  0  0  0
   -1.7776    2.2182   11.8250 H   0  0  0  0  0  0  0  0  0  0  0  0
    5.5756   -2.0107   10.6224 Si  0  0  0  0  0  4  0  0  0  0  0  0
    6.9651   -2.4501   10.7141 H   0  0  0  0  0  0  0  0  0  0  0  0
    4.6588   -3.1303   10.8493 H   0  0  0  0  0  0  0  0  0  0  0  0
    5.3481   -1.0365   11.6970 H   0  0  0  0  0  0  0  0  0  0  0  0
  1  2  1  0
  1  5  1  0
  2  3  1  0
  2  4  1  0
  2  8  1  0
  5  6  1  0
  5  7  1  0
  5 11  1  0
  8  9  1  0
  8 10  1  0
  8 17  1  0
 11 12  1  0
 11 13  1  0
 11 14  1  0
 14 15  1  0
 14 16  1  0
 14 23  1  0
 17 18  1  0
 17 19  1  0
 17 20  1  0
 20 21  1  0
 20 22  1  0
 20 26  1  0
 23 24  1  0
 23 25  1  0
 23 29  1  0
 26 27  1  0
 26 28  1  0
 26 36  1  0
 29 30  1  0
 29 31  1  0
 29 32  1  0
 32 33  1  0
 32 34  1  0
 32 35  1  0
 36 37  1  0
 36 38  1  0
 36 39  1  0
M  CHG  1   1   1
M  RAD  1   1   2
M  END
$$$$
