
     RDKit          3D

 39 38  0  0  0  0  0  0  0  0999 V2000
   -0.0340    0.0208   -3.1994 S   0  0  0  0  0  2  0  0  0  0  0  0
    1.5320    0.6180   -4.5150 Si  0  0  0  0  0  4  0  0  0  0  0  0
    2.7802   -0.0364   -4.0252 H   0  0  0  0  0  0  0  0  0  0  0  0
    1.7903    2.0784   -4.3792 H   0  0  0  0  0  0  0  0  0  0  0  0
   -1.8059   -0.5389   -4.2210 Si  0  0  0  0  0  4  0  0  0  0  0  0
   -2.7141   -1.1851   -3.2525 H   0  0  0  0  0  0  0  0  0  0  0  0
   -1.5704   -1.5209   -5.2919 H   0  0  0  0  0  0  0  0  0  0  0  0
    1.2048    0.0002   -6.5983 Si  0  0  0  0  0  4  0  0  0  0  0  0
    0.3061   -1.1856   -6.6144 H   0  0  0  0  0  0  0  0  0  0  0  0
    2.4942   -0.4397   -7.2028 H   0  0  0  0  0  0  0  0  0  0  0  0
   -2.9072    1.2585   -5.0117 Si  0  0  0  0  0  4  0  0  0  0  0  0
   -3.6782    1.9095   -3.9723 H   0  0  0  0  0  0  0  0  0  0  0  0
   -1.8821    2.1891   -5.5078 H   0  0  0  0  0  0  0  0  0  0  0  0
   -4.1433    0.5797   -6.7306 Si  0  0  0  0  0  4  0  0  0  0  0  0
   -5.1654   -0.3582   -6.2619 H   0  0  0  0  0  0  0  0  0  0  0  0
   -3.2274   -0.1209   -7.6731 H   0  0  0  0  0  0  0  0  0  0  0  0
    0.3314    1.5517   -7.8832 Si  0  0  0  0  0  4  0  0  0  0  0  0
   -1.1389    1.6468   -7.7708 H   0  0  0  0  0  0  0  0  0  0  0  0
    0.5957    1.1847   -9.3054 H   0  0  0  0  0  0  0  0  0  0  0  0
    1.2045    3.5631   -7.5537 Si  0  0  0  0  0  4  0  0  0  0  0  0
    0.9192    4.3748   -8.7713 H   0  0  0  0  0  0  0  0  0  0  0  0
    2.6622    3.4269   -7.4885 H   0  0  0  0  0  0  0  0  0  0  0  0
   -5.0676    2.2654   -7.8244 Si  0  0  0  0  0  4  0  0  0  0  0  0
   -6.3023    1.8498   -8.5243 H   0  0  0  0  0  0  0  0  0  0  0  0
   -5.3124    3.3683   -6.9037 H   0  0  0  0  0  0  0  0  0  0  0  0
    0.3397    4.6092   -5.8196 Si  0  0  0  0  0  4  0  0  0  0  0  0
    1.3398    5.5697   -5.2853 H   0  0  0  0  0  0  0  0  0  0  0  0
    0.0322    3.6785   -4.7091 H   0  0  0  0  0  0  0  0  0  0  0  0
   -3.6588    3.0001   -9.4174 Si  0  0  0  0  0  4  0  0  0  0  0  0
   -3.1913    1.8860  -10.2586 H   0  0  0  0  0  0  0  0  0  0  0  0
   -2.4943    3.6666   -8.8243 H   0  0  0  0  0  0  0  0  0  0  0  0
   -4.7685    4.5168  -10.6311 Si  0  0  0  0  0  4  0  0  0  0  0  0
   -5.6723    5.2314   -9.7194 H   0  0  0  0  0  0  0  0  0  0  0  0
   -3.8444    5.4136  -11.3280 H   0  0  0  0  0  0  0  0  0  0  0  0
   -5.6037    3.7856  -11.5867 H   0  0  0  0  0  0  0  0  0  0  0  0
   -1.5591    5.6714   -6.3191 Si  0  0  0  0  0  4  0  0  0  0  0  0
   -1.3927    6.6516   -7.3751 H   0  0  0  0  0  0  0  0  0  0  0  0
   -2.5677    4.6456   -6.6343 H   0  0  0  0  0  0  0  0  0  0  0  0
   -2.0187    6.3411   -5.0838 H   0  0  0  0  0  0  0  0  0  0  0  0
  1  2  1  0
  1  5  1  0
  2  3  1  0
  2  4  1  0
  2  8  1  0
  5  6  1  0
  5  7  1  0
  5 11  1  0
  8  9  1  0
  8 10  1  0
  8 17  1  0
 11 12  1  0
 11 13  1  0
 11 14  1  0
 14 15  1  0
 14 16  1  0
 14 23  1  0
 17 18  1  0
 17 19  1  0
 17 20  1  0
 20 21  1  0
 20 22  1  0
 20 26  1  0
 23 24  1  0
 23 25  1  0
 23 29  1  0
 26 27  1  0
 26 28  1  0
 26 36  1  0
 29 30  1  0
 29 31  1  0
 29 32  1  0
 32 33  1  0
 32 34  1  0
 32 35  1  0
 36 37  1  0
 36 38  1  0
 36 39  1  0
M  CHG  1   1   1
M  RAD  1   1   2
M  END
$$$$

     RDKit          3D

 39 38  0  0  0  0  0  0  0  0999 V2000
   -0.0340    0.0208   -3.1994 S   0  0  0  0  0  2  0  0  0  0  0  0
   -1.7120   -0.5237   -4.3761 Si  0  0  0  0  0  4  0  0  0  0  0  0
   -2.7482   -1.1853   -3.5682 H   0  0  0  0  0  0  0  0  0  0  0  0
   -1.3001   -1.4515   -5.4173 H   0  0  0  0  0  0  0  0  0  0  0  0
    1.8197   -0.4334   -4.1317 Si  0  0  0  0  0  4  0  0  0  0  0  0
    1.8574    0.0792   -5.5016 H   0  0  0  0  0  0  0  0  0  0  0  0
    2.8940    0.2341   -3.3573 H   0  0  0  0  0  0  0  0  0  0  0  0
   -2.6404    1.2398   -5.3884 Si  0  0  0  0  0  4  0  0  0  0  0  0
   -3.8048    0.7191   -6.1591 H   0  0  0  0  0  0  0  0  0  0  0  0
   -3.1568    2.2149   -4.4480 H   0  0  0  0  0  0  0  0  0  0  0  0
    2.2599   -2.6042   -4.1606 Si  0  0  0  0  0  4  0  0  0  0  0  0
    3.4575   -2.8137   -5.0005 H   0  0  0  0  0  0  0  0  0  0  0  0
    2.5884   -3.1234   -2.8211 H   0  0  0  0  0  0  0  0  0  0  0  0
    0.6039   -3.7936   -5.0210 Si  0  0  0  0  0  4  0  0  0  0  0  0
    0.9015   -5.2274   -4.7747 H   0  0  0  0  0  0  0  0  0  0  0  0
   -0.6808   -3.5210   -4.3717 H   0  0  0  0  0  0  0  0  0  0  0  0
   -1.2435    2.1584   -6.8521 Si  0  0  0  0  0  4  0  0  0  0  0  0
    0.0747    2.4289   -6.2852 H   0  0  0  0  0  0  0  0  0  0  0  0
   -1.8335    3.4642   -7.2604 H   0  0  0  0  0  0  0  0  0  0  0  0
   -1.0066    0.9343   -8.6814 Si  0  0  0  0  0  4  0  0  0  0  0  0
   -0.6313    1.8561   -9.7911 H   0  0  0  0  0  0  0  0  0  0  0  0
    0.1161    0.0116   -8.5193 H   0  0  0  0  0  0  0  0  0  0  0  0
    0.4729   -3.5499   -7.2458 Si  0  0  0  0  0  4  0  0  0  0  0  0
   -0.6982   -2.6628   -7.4972 H   0  0  0  0  0  0  0  0  0  0  0  0
    0.2294   -4.8084   -7.9231 H   0  0  0  0  0  0  0  0  0  0  0  0
   -2.8818   -0.0871   -9.2762 Si  0  0  0  0  0  4  0  0  0  0  0  0
   -3.7121   -0.4356   -8.1251 H   0  0  0  0  0  0  0  0  0  0  0  0
   -3.6254    0.7622  -10.2462 H   0  0  0  0  0  0  0  0  0  0  0  0
    2.2638   -2.4763   -8.0403 Si  0  0  0  0  0  4  0  0  0  0  0  0
    1.8538   -1.8379   -9.3115 H   0  0  0  0  0  0  0  0  0  0  0  0
    2.7581   -1.5063   -7.0776 H   0  0  0  0  0  0  0  0  0  0  0  0
    3.8441   -4.0366   -8.4255 Si  0  0  0  0  0  4  0  0  0  0  0  0
    3.4787   -4.7024   -9.6752 H   0  0  0  0  0  0  0  0  0  0  0  0
    5.1239   -3.3497   -8.4816 H   0  0  0  0  0  0  0  0  0  0  0  0
    3.7634   -4.9822   -7.2810 H   0  0  0  0  0  0  0  0  0  0  0  0
   -2.3301   -1.9728  -10.3657 Si  0  0  0  0  0  4  0  0  0  0  0  0
   -3.0610   -2.0822  -11.6384 H   0  0  0  0  0  0  0  0  0  0  0  0
   -0.9020   -1.9903  -10.6854 H   0  0  0  0  0  0  0  0  0  0  0  0
   -2.6818   -3.1629   -9.5723 H   0  0  0  0  0  0  0  0  0  0  0  0
  1  2  1  0
  1  5  1  0
  2  3  1  0
  2  4  1  0
  2  8  1  0
  5  6  1  0
  5  7  1  0
  5 11  1  0
  8  9  1  0
  8 10  1  0
  8 17  1  0
 11 12  1  0
 11 13  1  0
 11 14  1  0
 14 15  1  0
 14 16  1  0
 14 23  1  0
 17 18  1  0
 17 19  1  0
 17 20  1  0
 20 21  1  0
 20 22  1  0
 20 26  1  0
 23 24  1  0
 23 25  1  0
 23 29  1  0
 26 27  1  0
 26 28  1  0
 26 36  1  0
 29 30  1  0
 29 31  1  0
 29 32  1  0
 32 33  1  0
 32 34  1  0
 32 35  1  0
 36 37  1  0
 36 38  1  0
 36 39  1  0
M  CHG  1   1   1
M  RAD  1   1   2
M  END
$$$$

     RDKit          3D

 39 38  0  0  0  0  0  0  0  0999 V2000
   -0.0340    0.0208   -3.1994 S   0  0  0  0  0  2  0  0  0  0  0  0
    1.5372    0.6040   -4.5150 Si  0  0  0  0  0  4  0  0  0  0  0  0
    2.7796   -0.0614   -4.0252 H   0  0  0  0  0  0  0  0  0  0  0  0
    1.8085    2.0621   -4.3793 H   0  0  0  0  0  0  0  0  0  0  0  0
   -1.8108   -0.5232   -4.2210 Si  0  0  0  0  0  4  0  0  0  0  0  0
   -2.7247   -1.1613   -3.2525 H   0  0  0  0  0  0  0  0  0  0  0  0
   -1.5841   -1.5073   -5.2918 H   0  0  0  0  0  0  0  0  0  0  0  0
    1.2046   -0.0109   -6.5982 Si  0  0  0  0  0  4  0  0  0  0  0  0
    0.2954   -1.1887   -6.6144 H   0  0  0  0  0  0  0  0  0  0  0  0
    2.4900   -0.4623   -7.2028 H   0  0  0  0  0  0  0  0  0  0  0  0
   -2.8961    1.2839   -5.0117 Si  0  0  0  0  0  4  0  0  0  0  0  0
   -3.6612    1.9418   -3.9724 H   0  0  0  0  0  0  0  0  0  0  0  0
   -1.8628    2.2054   -5.5078 H   0  0  0  0  0  0  0  0  0  0  0  0
   -4.1381    0.6161   -6.7306 Si  0  0  0  0  0  4  0  0  0  0  0  0
   -5.1686   -0.3127   -6.2619 H   0  0  0  0  0  0  0  0  0  0  0  0
   -3.2285   -0.0927   -7.6731 H   0  0  0  0  0  0  0  0  0  0  0  0
    0.3450    1.5482   -7.8833 Si  0  0  0  0  0  4  0  0  0  0  0  0
   -1.1244    1.6564   -7.7709 H   0  0  0  0  0  0  0  0  0  0  0  0
    0.6060    1.1789   -9.3055 H   0  0  0  0  0  0  0  0  0  0  0  0
    1.2359    3.5518   -7.5538 Si  0  0  0  0  0  4  0  0  0  0  0  0
    0.9579    4.3660   -8.7714 H   0  0  0  0  0  0  0  0  0  0  0  0
    2.6924    3.4027   -7.4886 H   0  0  0  0  0  0  0  0  0  0  0  0
   -5.0474    2.3099   -7.8245 Si  0  0  0  0  0  4  0  0  0  0  0  0
   -6.2858    1.9052   -8.5244 H   0  0  0  0  0  0  0  0  0  0  0  0
   -5.2824    3.4149   -6.9038 H   0  0  0  0  0  0  0  0  0  0  0  0
    0.3805    4.6056   -5.8197 Si  0  0  0  0  0  4  0  0  0  0  0  0
    1.3891    5.5572   -5.2855 H   0  0  0  0  0  0  0  0  0  0  0  0
    0.0646    3.6777   -4.7092 H   0  0  0  0  0  0  0  0  0  0  0  0
   -3.6322    3.0320   -9.4175 Si  0  0  0  0  0  4  0  0  0  0  0  0
   -3.1746    1.9138  -10.2587 H   0  0  0  0  0  0  0  0  0  0  0  0
   -2.4618    3.6882   -8.8245 H   0  0  0  0  0  0  0  0  0  0  0  0
   -4.7284    4.5585  -10.6312 Si  0  0  0  0  0  4  0  0  0  0  0  0
   -5.6258    5.2810   -9.7196 H   0  0  0  0  0  0  0  0  0  0  0  0
   -3.7963    5.4470  -11.3282 H   0  0  0  0  0  0  0  0  0  0  0  0
   -5.5700    3.8347  -11.5869 H   0  0  0  0  0  0  0  0  0  0  0  0
   -1.5089    5.6846   -6.3193 Si  0  0  0  0  0  4  0  0  0  0  0  0
   -1.3337    6.6632   -7.3753 H   0  0  0  0  0  0  0  0  0  0  0  0
   -2.5265    4.6678   -6.6344 H   0  0  0  0  0  0  0  0  0  0  0  0
   -1.9625    6.3585   -5.0840 H   0  0  0  0  0  0  0  0  0  0  0  0
  1  2  1  0
  1  5  1  0
  2  3  1  0
  2  4  1  0
  2  8  1  0
  5  6  1  0
  5  7  1  0
  5 11  1  0
  8  9  1  0
  8 10  1  0
  8 17  1  0
 11 12  1  0
 11 13  1  0
 11 14  1  0
 14 15  1  0
 14 16  1  0
 14 23  1  0
 17 18  1  0
 17 19  1  0
 17 20  1  0
 20 21  1  0
 20 22  1  0
 20 26  1  0
 23 24  1  0
 23 25  1  0
 23 29  1  0
 26 27  1  0
 26 28  1  0
 26 36  1  0
 29 30  1  0
 29 31  1  0
 29 32  1  0
 32 33  1  0
 32 34  1  0
 32 35  1  0
 36 37  1  0
 36 38  1  0
 36 39  1  0
M  CHG  1   1   1
M  RAD  1   1   2
M  END
$$$$

     RDKit          3D

 39 38  0  0  0  0  0  0  0  0999 V2000
   -0.0340    0.0208   -3.1994 S   0  0  0  0  0  2  0  0  0  0  0  0
   -1.0921    1.3294   -4.5061 Si  0  0  0  0  0  4  0  0  0  0  0  0
   -0.8530    2.7173   -4.0136 H   0  0  0  0  0  0  0  0  0  0  0  0
   -2.5603    1.1234   -4.3637 H   0  0  0  0  0  0  0  0  0  0  0  0
    1.0408   -1.4886   -4.2305 Si  0  0  0  0  0  4  0  0  0  0  0  0
    1.9408   -2.1554   -3.2683 H   0  0  0  0  0  0  0  0  0  0  0  0
    1.8968   -0.9582   -5.3041 H   0  0  0  0  0  0  0  0  0  0  0  0
   -0.4137    1.2150   -6.5931 Si  0  0  0  0  0  4  0  0  0  0  0  0
    0.9917    0.7266   -6.6175 H   0  0  0  0  0  0  0  0  0  0  0  0
   -0.3966    2.5788   -7.1939 H   0  0  0  0  0  0  0  0  0  0  0  0
   -0.3322   -3.0892   -5.0190 Si  0  0  0  0  0  4  0  0  0  0  0  0
   -0.7081   -4.0264   -3.9804 H   0  0  0  0  0  0  0  0  0  0  0  0
   -1.5365   -2.4003   -5.5072 H   0  0  0  0  0  0  0  0  0  0  0  0
    0.6868   -4.0501   -6.7456 Si  0  0  0  0  0  4  0  0  0  0  0  0
    1.8969   -4.7338   -6.2848 H   0  0  0  0  0  0  0  0  0  0  0  0
    1.0655   -2.9599   -7.6870 H   0  0  0  0  0  0  0  0  0  0  0  0
   -1.6257   -0.0915   -7.8758 Si  0  0  0  0  0  4  0  0  0  0  0  0
   -1.2614   -1.5196   -7.7692 H   0  0  0  0  0  0  0  0  0  0  0  0
   -1.3654    0.2773   -9.2983 H   0  0  0  0  0  0  0  0  0  0  0  0
   -3.8068    0.1165   -7.5350 Si  0  0  0  0  0  4  0  0  0  0  0  0
   -4.4967   -0.4022   -8.7506 H   0  0  0  0  0  0  0  0  0  0  0  0
   -4.1273    1.5448   -7.4642 H   0  0  0  0  0  0  0  0  0  0  0  0
   -0.6362   -5.4470   -7.8369 Si  0  0  0  0  0  4  0  0  0  0  0  0
    0.1371   -6.4909   -8.5436 H   0  0  0  0  0  0  0  0  0  0  0  0
   -1.6050   -6.0231   -6.9130 H   0  0  0  0  0  0  0  0  0  0  0  0
   -4.5261   -1.0340   -5.8005 Si  0  0  0  0  0  4  0  0  0  0  0  0
   -5.7459   -0.3811   -5.2584 H   0  0  0  0  0  0  0  0  0  0  0  0
   -3.5405   -1.0421   -4.6949 H   0  0  0  0  0  0  0  0  0  0  0  0
   -1.7781   -4.3296   -9.4212 Si  0  0  0  0  0  4  0  0  0  0  0  0
   -0.8671   -3.5384  -10.2647 H   0  0  0  0  0  0  0  0  0  0  0  0
   -2.7688   -3.4297   -8.8207 H   0  0  0  0  0  0  0  0  0  0  0  0
   -2.8837   -5.8503  -10.6337 Si  0  0  0  0  0  4  0  0  0  0  0  0
   -3.2795   -6.9331   -9.7231 H   0  0  0  0  0  0  0  0  0  0  0  0
   -4.0255   -5.2464  -11.3234 H   0  0  0  0  0  0  0  0  0  0  0  0
   -1.9349   -6.4159  -11.5956 H   0  0  0  0  0  0  0  0  0  0  0  0
   -4.9521   -3.1668   -6.3040 Si  0  0  0  0  0  4  0  0  0  0  0  0
   -5.9409   -3.3083   -7.3556 H   0  0  0  0  0  0  0  0  0  0  0  0
   -3.6665   -3.8082   -6.6273 H   0  0  0  0  0  0  0  0  0  0  0  0
   -5.4410   -3.8142   -5.0680 H   0  0  0  0  0  0  0  0  0  0  0  0
  1  2  1  0
  1  5  1  0
  2  3  1  0
  2  4  1  0
  2  8  1  0
  5  6  1  0
  5  7  1  0
  5 11  1  0
  8  9  1  0
  8 10  1  0
  8 17  1  0
 11 12  1  0
 11 13  1  0
 11 14  1  0
 14 15  1  0
 14 16  1  0
 14 23  1  0
 17 18  1  0
 17 19  1  0
 17 20  1  0
 20 21  1  0
 20 22  1  0
 20 26  1  0
 23 24  1  0
 23 25  1  0
 23 29  1  0
 26 27  1  0
 26 28  1  0
 26 36  1  0
 29 30  1  0
 29 31  1  0
 29 32  1  0
 32 33  1  0
 32 34  1  0
 32 35  1  0
 36 37  1  0
 36 38  1  0
 36 39  1  0
M  CHG  1   1   1
M  RAD  1   1   2
M  END
$$$$

     RDKit          3D

 39 38  0  0  0  0  0  0  0  0999 V2000
   -0.0340    0.0208   -3.1994 S   0  0  0  0  0  2  0  0  0  0  0  0
   -1.7499    0.8374   -4.1413 Si  0  0  0  0  0  4  0  0  0  0  0  0
   -2.8881    0.7301   -3.1858 H   0  0  0  0  0  0  0  0  0  0  0  0
   -2.0830    0.0208   -5.3273 H   0  0  0  0  0  0  0  0  0  0  0  0
    1.0831   -1.1805   -4.5683 Si  0  0  0  0  0  4  0  0  0  0  0  0
    1.5388   -0.2703   -5.6577 H   0  0  0  0  0  0  0  0  0  0  0  0
    2.2069   -1.8416   -3.9412 H   0  0  0  0  0  0  0  0  0  0  0  0
   -1.4775    2.9647   -4.7278 Si  0  0  0  0  0  4  0  0  0  0  0  0
   -2.5956    3.7762   -4.1759 H   0  0  0  0  0  0  0  0  0  0  0  0
   -0.2456    3.5435   -4.2166 H   0  0  0  0  0  0  0  0  0  0  0  0
   -0.2474   -2.7001   -5.5601 Si  0  0  0  0  0  4  0  0  0  0  0  0
   -1.3806   -1.9703   -6.1964 H   0  0  0  0  0  0  0  0  0  0  0  0
   -0.8092   -3.6232   -4.5805 H   0  0  0  0  0  0  0  0  0  0  0  0
    0.8537   -3.7632   -7.1496 Si  0  0  0  0  0  4  0  0  0  0  0  0
    0.7150   -3.1033   -8.4729 H   0  0  0  0  0  0  0  0  0  0  0  0
    0.2314   -5.1066   -7.3186 H   0  0  0  0  0  0  0  0  0  0  0  0
   -1.5793    3.1986   -6.9697 Si  0  0  0  0  0  4  0  0  0  0  0  0
   -2.8846    3.7256   -7.3787 H   0  0  0  0  0  0  0  0  0  0  0  0
   -0.5156    4.1200   -7.4089 H   0  0  0  0  0  0  0  0  0  0  0  0
   -1.2785    1.1844   -7.8583 Si  0  0  0  0  0  4  0  0  0  0  0  0
   -2.5331    0.4123   -7.7430 H   0  0  0  0  0  0  0  0  0  0  0  0
   -0.2678    0.4824   -7.0782 H   0  0  0  0  0  0  0  0  0  0  0  0
    3.0042   -4.0115   -6.7061 Si  0  0  0  0  0  4  0  0  0  0  0  0
    3.2245   -4.3711   -5.2927 H   0  0  0  0  0  0  0  0  0  0  0  0
    3.5382   -5.1172   -7.5506 H   0  0  0  0  0  0  0  0  0  0  0  0
   -0.5761    1.2969   -9.9670 Si  0  0  0  0  0  4  0  0  0  0  0  0
   -0.9804    2.5458  -10.6242 H   0  0  0  0  0  0  0  0  0  0  0  0
    0.9079    1.1553  -10.0125 H   0  0  0  0  0  0  0  0  0  0  0  0
    4.1850   -2.1832   -7.2368 Si  0  0  0  0  0  4  0  0  0  0  0  0
    3.4511   -0.9562   -6.9359 H   0  0  0  0  0  0  0  0  0  0  0  0
    4.4586   -2.1677   -8.6958 H   0  0  0  0  0  0  0  0  0  0  0  0
    6.1012   -2.1125   -6.0711 Si  0  0  0  0  0  4  0  0  0  0  0  0
    7.1782   -2.6788   -6.8756 H   0  0  0  0  0  0  0  0  0  0  0  0
    5.9669   -2.8778   -4.8218 H   0  0  0  0  0  0  0  0  0  0  0  0
    6.4642   -0.7186   -5.7659 H   0  0  0  0  0  0  0  0  0  0  0  0
   -1.4413   -0.4887  -11.0390 Si  0  0  0  0  0  4  0  0  0  0  0  0
   -1.3378   -1.6310  -10.0915 H   0  0  0  0  0  0  0  0  0  0  0  0
   -0.7511   -0.7431  -12.2892 H   0  0  0  0  0  0  0  0  0  0  0  0
   -2.8766   -0.2170  -11.2085 H   0  0  0  0  0  0  0  0  0  0  0  0
  1  2  1  0
  1  5  1  0
  2  3  1  0
  2  4  1  0
  2  8  1  0
  5  6  1  0
  5  7  1  0
  5 11  1  0
  8  9  1  0
  8 10  1  0
  8 17  1  0
 11 12  1  0
 11 13  1  0
 11 14  1  0
 14 15  1  0
 14 16  1  0
 14 23  1  0
 17 18  1  0
 17 19  1  0
 17 20  1  0
 20 21  1  0
 20 22  1  0
 20 26  1  0
 23 24  1  0
 23 25  1  0
 23 29  1  0
 26 27  1  0
 26 28  1  0
 26 36  1  0
 29 30  1  0
 29 31  1  0
 29 32  1  0
 32 33  1  0
 32 34  1  0
 32 35  1  0
 36 37  1  0
 36 38  1  0
 36 39  1  0
M  CHG  1   1   1
M  RAD  1   1   2
M  END
$$$$

     RDKit          3D

 39 38  0  0  0  0  0  0  0  0999 V2000
   -0.0340    0.0208   -3.1994 S   0  0  0  0  0  2  0  0  0  0  0  0
    1.0719   -1.2408   -4.5127 Si  0  0  0  0  0  4  0  0  0  0  0  0
    0.8977   -2.6375   -4.0177 H   0  0  0  0  0  0  0  0  0  0  0  0
    2.5305   -0.9701   -4.3806 H   0  0  0  0  0  0  0  0  0  0  0  0
   -1.1815    1.4804   -4.2239 Si  0  0  0  0  0  4  0  0  0  0  0  0
   -2.1033    2.1077   -3.2559 H   0  0  0  0  0  0  0  0  0  0  0  0
   -2.0206    0.9117   -5.2912 H   0  0  0  0  0  0  0  0  0  0  0  0
    0.3747   -1.1584   -6.5949 Si  0  0  0  0  0  4  0  0  0  0  0  0
   -1.0510   -0.7327   -6.6099 H   0  0  0  0  0  0  0  0  0  0  0  0
    0.4137   -2.5222   -7.1948 H   0  0  0  0  0  0  0  0  0  0  0  0
    0.1140    3.1393   -5.0229 Si  0  0  0  0  0  4  0  0  0  0  0  0
    0.4553    4.0932   -3.9875 H   0  0  0  0  0  0  0  0  0  0  0  0
    1.3441    2.5040   -5.5191 H   0  0  0  0  0  0  0  0  0  0  0  0
   -0.9584    4.0528   -6.7429 Si  0  0  0  0  0  4  0  0  0  0  0  0
   -2.1944    4.6827   -6.2741 H   0  0  0  0  0  0  0  0  0  0  0  0
   -1.2952    2.9461   -7.6810 H   0  0  0  0  0  0  0  0  0  0  0  0
    1.5189    0.1991   -7.8868 Si  0  0  0  0  0  4  0  0  0  0  0  0
    1.0925    1.6098   -7.7785 H   0  0  0  0  0  0  0  0  0  0  0  0
    1.2652   -0.1820   -9.3073 H   0  0  0  0  0  0  0  0  0  0  0  0
    3.7093    0.0880   -7.5611 Si  0  0  0  0  0  4  0  0  0  0  0  0
    4.3672    0.6356   -8.7819 H   0  0  0  0  0  0  0  0  0  0  0  0
    4.0931   -1.3247   -7.4917 H   0  0  0  0  0  0  0  0  0  0  0  0
    0.2940    5.5057   -7.8442 Si  0  0  0  0  0  4  0  0  0  0  0  0
   -0.5296    6.5138   -8.5462 H   0  0  0  0  0  0  0  0  0  0  0  0
    1.2427    6.1250   -6.9275 H   0  0  0  0  0  0  0  0  0  0  0  0
    4.3890    1.2708   -5.8324 Si  0  0  0  0  0  4  0  0  0  0  0  0
    5.6403    0.6729   -5.2984 H   0  0  0  0  0  0  0  0  0  0  0  0
    3.4117    1.2363   -4.7200 H   0  0  0  0  0  0  0  0  0  0  0  0
    1.4731    4.4385   -9.4358 Si  0  0  0  0  0  4  0  0  0  0  0  0
    0.5921    3.6070  -10.2724 H   0  0  0  0  0  0  0  0  0  0  0  0
    2.5067    3.5838   -8.8417 H   0  0  0  0  0  0  0  0  0  0  0  0
    2.5020    6.0054  -10.6569 Si  0  0  0  0  0  4  0  0  0  0  0  0
    2.8559    7.1055   -9.7497 H   0  0  0  0  0  0  0  0  0  0  0  0
    3.6645    5.4520  -11.3541 H   0  0  0  0  0  0  0  0  0  0  0  0
    1.5225    6.5277  -11.6125 H   0  0  0  0  0  0  0  0  0  0  0  0
    4.7169    3.4198   -6.3401 Si  0  0  0  0  0  4  0  0  0  0  0  0
    5.6912    3.6039   -7.3986 H   0  0  0  0  0  0  0  0  0  0  0  0
    3.4020    4.0035   -6.6548 H   0  0  0  0  0  0  0  0  0  0  0  0
    5.1853    4.0894   -5.1080 H   0  0  0  0  0  0  0  0  0  0  0  0
  1  2  1  0
  1  5  1  0
  2  3  1  0
  2  4  1  0
  2  8  1  0
  5  6  1  0
  5  7  1  0
  5 11  1  0
  8  9  1  0
  8 10  1  0
  8 17  1  0
 11 12  1  0
 11 13  1  0
 11 14  1  0
 14 15  1  0
 14 16  1  0
 14 23  1  0
 17 18  1  0
 17 19  1  0
 17 20  1  0
 20 21  1  0
 20 22  1  0
 20 26  1  0
 23 24  1  0
 23 25  1  0
 23 29  1  0
 26 27  1  0
 26 28  1  0
 26 36  1  0
 29 30  1  0
 29 31  1  0
 29 32  1  0
 32 33  1  0
 32 34  1  0
 32 35  1  0
 36 37  1  0
 36 38  1  0
 36 39  1  0
M  CHG  1   1   1
M  RAD  1   1   2
M  END
$$$$

     RDKit          3D

 39 38  0  0  0  0  0  0  0  0999 V2000
   -0.0340    0.0208   -3.1994 S   0  0  0  0  0  2  0  0  0  0  0  0
   -1.5793    1.1262   -4.1420 Si  0  0  0  0  0  4  0  0  0  0  0  0
   -2.7186    1.2217   -3.1866 H   0  0  0  0  0  0  0  0  0  0  0  0
   -2.0509    0.3803   -5.3275 H   0  0  0  0  0  0  0  0  0  0  0  0
    0.8542   -1.3593   -4.5675 Si  0  0  0  0  0  4  0  0  0  0  0  0
    1.4630   -0.5443   -5.6573 H   0  0  0  0  0  0  0  0  0  0  0  0
    1.8439   -2.2076   -3.9398 H   0  0  0  0  0  0  0  0  0  0  0  0
   -0.9365    3.1720   -4.7297 Si  0  0  0  0  0  4  0  0  0  0  0  0
   -1.8942    4.1680   -4.1785 H   0  0  0  0  0  0  0  0  0  0  0  0
    0.3781    3.5251   -4.2188 H   0  0  0  0  0  0  0  0  0  0  0  0
   -0.7232   -2.6214   -5.5585 Si  0  0  0  0  0  4  0  0  0  0  0  0
   -1.7102   -1.7039   -6.1953 H   0  0  0  0  0  0  0  0  0  0  0  0
   -1.4388   -3.4306   -4.5784 H   0  0  0  0  0  0  0  0  0  0  0  0
    0.1735   -3.8628   -7.1472 Si  0  0  0  0  0  4  0  0  0  0  0  0
    0.1532   -3.1897   -8.4709 H   0  0  0  0  0  0  0  0  0  0  0  0
   -0.6757   -5.0757   -7.3154 H   0  0  0  0  0  0  0  0  0  0  0  0
   -0.9955    3.4187   -6.9718 Si  0  0  0  0  0  4  0  0  0  0  0  0
   -2.1875    4.1671   -7.3813 H   0  0  0  0  0  0  0  0  0  0  0  0
    0.2138    4.1382   -7.4114 H   0  0  0  0  0  0  0  0  0  0  0  0
   -1.0541    1.3825   -7.8592 Si  0  0  0  0  0  4  0  0  0  0  0  0
   -2.4251    0.8434   -7.7435 H   0  0  0  0  0  0  0  0  0  0  0  0
   -0.1829    0.5140   -7.0786 H   0  0  0  0  0  0  0  0  0  0  0  0
    2.2466   -4.4857   -6.7033 Si  0  0  0  0  0  4  0  0  0  0  0  0
    2.4002   -4.8776   -5.2897 H   0  0  0  0  0  0  0  0  0  0  0  0
    2.5776   -5.6687   -7.5471 H   0  0  0  0  0  0  0  0  0  0  0  0
   -0.3428    1.3682   -9.9679 Si  0  0  0  0  0  4  0  0  0  0  0  0
   -0.5209    2.6685  -10.6259 H   0  0  0  0  0  0  0  0  0  0  0  0
    1.0930    0.9675  -10.0131 H   0  0  0  0  0  0  0  0  0  0  0  0
    3.7309   -2.8942   -7.2350 Si  0  0  0  0  0  4  0  0  0  0  0  0
    3.2246   -1.5570   -6.9349 H   0  0  0  0  0  0  0  0  0  0  0  0
    4.0031   -2.9280   -8.6939 H   0  0  0  0  0  0  0  0  0  0  0  0
    5.6297   -3.1614   -6.0690 Si  0  0  0  0  0  4  0  0  0  0  0  0
    6.5901   -3.9090   -6.8731 H   0  0  0  0  0  0  0  0  0  0  0  0
    5.3627   -3.8903   -4.8193 H   0  0  0  0  0  0  0  0  0  0  0  0
    6.2325   -1.8529   -5.7647 H   0  0  0  0  0  0  0  0  0  0  0  0
   -1.5090   -0.2377  -11.0388 Si  0  0  0  0  0  4  0  0  0  0  0  0
   -1.6083   -1.3798  -10.0907 H   0  0  0  0  0  0  0  0  0  0  0  0
   -0.8744   -0.6105  -12.2888 H   0  0  0  0  0  0  0  0  0  0  0  0
   -2.8739    0.2824  -11.2087 H   0  0  0  0  0  0  0  0  0  0  0  0
  1  2  1  0
  1  5  1  0
  2  3  1  0
  2  4  1  0
  2  8  1  0
  5  6  1  0
  5  7  1  0
  5 11  1  0
  8  9  1  0
  8 10  1  0
  8 17  1  0
 11 12  1  0
 11 13  1  0
 11 14  1  0
 14 15  1  0
 14 16  1  0
 14 23  1  0
 17 18  1  0
 17 19  1  0
 17 20  1  0
 20 21  1  0
 20 22  1  0
 20 26  1  0
 23 24  1  0
 23 25  1  0
 23 29  1  0
 26 27  1  0
 26 28  1  0
 26 36  1  0
 29 30  1  0
 29 31  1  0
 29 32  1  0
 32 33  1  0
 32 34  1  0
 32 35  1  0
 36 37  1  0
 36 38  1  0
 36 39  1  0
M  CHG  1   1   1
M  RAD  1   1   2
M  END
$$$$

     RDKit          3D

 39 38  0  0  0  0  0  0  0  0999 V2000
   -0.0340    0.0208   -3.1994 S   0  0  0  0  0  2  0  0  0  0  0  0
   -1.7908    0.7454   -4.1411 Si  0  0  0  0  0  4  0  0  0  0  0  0
   -2.9217    0.5778   -3.1856 H   0  0  0  0  0  0  0  0  0  0  0  0
   -2.0801   -0.0874   -5.3272 H   0  0  0  0  0  0  0  0  0  0  0  0
    1.1452   -1.1193   -4.5686 Si  0  0  0  0  0  4  0  0  0  0  0  0
    1.5520   -0.1861   -5.6578 H   0  0  0  0  0  0  0  0  0  0  0  0
    2.3025   -1.7200   -3.9416 H   0  0  0  0  0  0  0  0  0  0  0  0
   -1.6316    2.8843   -4.7272 Si  0  0  0  0  0  4  0  0  0  0  0  0
   -2.7911    3.6353   -4.1752 H   0  0  0  0  0  0  0  0  0  0  0  0
   -0.4321    3.5276   -4.2160 H   0  0  0  0  0  0  0  0  0  0  0  0
   -0.1029   -2.7071   -5.5606 Si  0  0  0  0  0  4  0  0  0  0  0  0
   -1.2732   -2.0384   -6.1967 H   0  0  0  0  0  0  0  0  0  0  0  0
   -0.6149   -3.6589   -4.5812 H   0  0  0  0  0  0  0  0  0  0  0  0
    1.0530   -3.7101   -7.1503 Si  0  0  0  0  0  4  0  0  0  0  0  0
    0.8795   -3.0583   -8.4735 H   0  0  0  0  0  0  0  0  0  0  0  0
    0.5028   -5.0846   -7.3195 H   0  0  0  0  0  0  0  0  0  0  0  0
   -1.7457    3.1128   -6.9691 Si  0  0  0  0  0  4  0  0  0  0  0  0
   -3.0771    3.5700   -7.3780 H   0  0  0  0  0  0  0  0  0  0  0  0
   -0.7324    4.0895   -7.4081 H   0  0  0  0  0  0  0  0  0  0  0  0
   -1.3386    1.1176   -7.8581 Si  0  0  0  0  0  4  0  0  0  0  0  0
   -2.5504    0.2800   -7.7429 H   0  0  0  0  0  0  0  0  0  0  0  0
   -0.2921    0.4700   -7.0782 H   0  0  0  0  0  0  0  0  0  0  0  0
    3.2136   -3.8441   -6.7069 Si  0  0  0  0  0  4  0  0  0  0  0  0
    3.4528   -4.1918   -5.2936 H   0  0  0  0  0  0  0  0  0  0  0  0
    3.8055   -4.9198   -7.5516 H   0  0  0  0  0  0  0  0  0  0  0  0
   -0.6431    1.2676   -9.9668 Si  0  0  0  0  0  4  0  0  0  0  0  0
   -1.1131    2.4935  -10.6237 H   0  0  0  0  0  0  0  0  0  0  0  0
    0.8462    1.2049  -10.0123 H   0  0  0  0  0  0  0  0  0  0  0  0
    4.2958   -1.9557   -7.2373 Si  0  0  0  0  0  4  0  0  0  0  0  0
    3.4979   -0.7694   -6.9362 H   0  0  0  0  0  0  0  0  0  0  0  0
    4.5682   -1.9254   -8.6963 H   0  0  0  0  0  0  0  0  0  0  0  0
    6.2056   -1.7837   -6.0715 Si  0  0  0  0  0  4  0  0  0  0  0  0
    7.3111   -2.2919   -6.8762 H   0  0  0  0  0  0  0  0  0  0  0  0
    6.1121   -2.5553   -4.8224 H   0  0  0  0  0  0  0  0  0  0  0  0
    6.4942   -0.3725   -5.7661 H   0  0  0  0  0  0  0  0  0  0  0  0
   -1.4125   -0.5611  -11.0390 Si  0  0  0  0  0  4  0  0  0  0  0  0
   -1.2486   -1.6965  -10.0918 H   0  0  0  0  0  0  0  0  0  0  0  0
   -0.7098   -0.7784  -12.2893 H   0  0  0  0  0  0  0  0  0  0  0  0
   -2.8602   -0.3659  -11.2085 H   0  0  0  0  0  0  0  0  0  0  0  0
  1  2  1  0
  1  5  1  0
  2  3  1  0
  2  4  1  0
  2  8  1  0
  5  6  1  0
  5  7  1  0
  5 11  1  0
  8  9  1  0
  8 10  1  0
  8 17  1  0
 11 12  1  0
 11 13  1  0
 11 14  1  0
 14 15  1  0
 14 16  1  0
 14 23  1  0
 17 18  1  0
 17 19  1  0
 17 20  1  0
 20 21  1  0
 20 22  1  0
 20 26  1  0
 23 24  1  0
 23 25  1  0
 23 29  1  0
 26 27  1  0
 26 28  1  0
 26 36  1  0
 29 30  1  0
 29 31  1  0
 29 32  1  0
 32 33  1  0
 32 34  1  0
 32 35  1  0
 36 37  1  0
 36 38  1  0
 36 39  1  0
M  CHG  1   1   1
M  RAD  1   1   2
M  END
$$$$
