
     RDKit          3D

 39 38  0  0  0  0  0  0  0  0999 V2000
   -1.3670   -0.1973    1.6169 S   0  0  0  0  0  2  0  0  0  0  0  0
   -1.5464    1.9193    1.7875 Si  0  0  0  0  0  4  0  0  0  0  0  0
   -1.6540    2.4696    0.4141 H   0  0  0  0  0  0  0  0  0  0  0  0
   -2.7164    2.2991    2.5761 H   0  0  0  0  0  0  0  0  0  0  0  0
   -2.7886   -1.1892    2.9193 Si  0  0  0  0  0  4  0  0  0  0  0  0
   -3.5370   -2.1443    2.0838 H   0  0  0  0  0  0  0  0  0  0  0  0
   -3.7089   -0.2272    3.5220 H   0  0  0  0  0  0  0  0  0  0  0  0
    0.2738    2.7996    2.7449 Si  0  0  0  0  0  4  0  0  0  0  0  0
    0.1002    4.2684    2.7650 H   0  0  0  0  0  0  0  0  0  0  0  0
    1.4621    2.4690    1.9320 H   0  0  0  0  0  0  0  0  0  0  0  0
   -1.5985   -2.2973    4.4426 Si  0  0  0  0  0  4  0  0  0  0  0  0
   -0.4634   -1.4144    4.8288 H   0  0  0  0  0  0  0  0  0  0  0  0
   -1.1526   -3.5890    3.9579 H   0  0  0  0  0  0  0  0  0  0  0  0
   -2.7873   -2.6421    6.3105 Si  0  0  0  0  0  4  0  0  0  0  0  0
   -3.5897   -1.4296    6.5890 H   0  0  0  0  0  0  0  0  0  0  0  0
   -3.6402   -3.8274    6.1803 H   0  0  0  0  0  0  0  0  0  0  0  0
    0.4542    2.0085    4.8241 Si  0  0  0  0  0  4  0  0  0  0  0  0
    1.2761    2.8765    5.6744 H   0  0  0  0  0  0  0  0  0  0  0  0
    1.1060    0.6837    4.7284 H   0  0  0  0  0  0  0  0  0  0  0  0
   -1.5983    1.7427    5.6460 Si  0  0  0  0  0  4  0  0  0  0  0  0
   -1.6489    0.4553    6.3715 H   0  0  0  0  0  0  0  0  0  0  0  0
   -2.5768    1.6779    4.5404 H   0  0  0  0  0  0  0  0  0  0  0  0
   -1.3179   -2.8617    7.9876 Si  0  0  0  0  0  4  0  0  0  0  0  0
   -0.8862   -1.5599    8.4739 H   0  0  0  0  0  0  0  0  0  0  0  0
   -1.9798   -3.5648    9.1031 H   0  0  0  0  0  0  0  0  0  0  0  0
   -2.1424    3.3815    7.0552 Si  0  0  0  0  0  4  0  0  0  0  0  0
   -3.6001    3.6066    6.9309 H   0  0  0  0  0  0  0  0  0  0  0  0
   -1.4232    4.6262    6.7493 H   0  0  0  0  0  0  0  0  0  0  0  0
    0.4353   -4.0781    7.3572 Si  0  0  0  0  0  4  0  0  0  0  0  0
   -0.0121   -5.3587    6.7987 H   0  0  0  0  0  0  0  0  0  0  0  0
    1.2514   -4.3359    8.5602 H   0  0  0  0  0  0  0  0  0  0  0  0
    1.6941   -3.0515    5.8662 Si  0  0  0  0  0  4  0  0  0  0  0  0
    1.9538   -1.6489    6.1876 H   0  0  0  0  0  0  0  0  0  0  0  0
    3.0126   -3.7459    5.8211 H   0  0  0  0  0  0  0  0  0  0  0  0
    1.1535   -3.1550    4.4894 H   0  0  0  0  0  0  0  0  0  0  0  0
   -1.7241    2.6839    9.1421 Si  0  0  0  0  0  4  0  0  0  0  0  0
   -0.9620    1.4226    9.1318 H   0  0  0  0  0  0  0  0  0  0  0  0
   -2.9888    2.4321    9.8616 H   0  0  0  0  0  0  0  0  0  0  0  0
   -0.9327    3.7197    9.8439 H   0  0  0  0  0  0  0  0  0  0  0  0
  1  2  1  0
  1  5  1  0
  2  3  1  0
  2  4  1  0
  2  8  1  0
  5  6  1  0
  5  7  1  0
  5 11  1  0
  8  9  1  0
  8 10  1  0
  8 17  1  0
 11 12  1  0
 11 13  1  0
 11 14  1  0
 14 15  1  0
 14 16  1  0
 14 23  1  0
 17 18  1  0
 17 19  1  0
 17 20  1  0
 20 21  1  0
 20 22  1  0
 20 26  1  0
 23 24  1  0
 23 25  1  0
 23 29  1  0
 26 27  1  0
 26 28  1  0
 26 36  1  0
 29 30  1  0
 29 31  1  0
 29 32  1  0
 32 33  1  0
 32 34  1  0
 32 35  1  0
 36 37  1  0
 36 38  1  0
 36 39  1  0
M  CHG  1   1   1
M  RAD  1   1   2
M  END
$$$$

     RDKit          3D

 39 38  0  0  0  0  0  0  0  0999 V2000
   -1.3670   -0.1973    1.6169 S   0  0  0  0  0  2  0  0  0  0  0  0
   -3.4674   -0.1443    1.9307 Si  0  0  0  0  0  4  0  0  0  0  0  0
   -4.0152   -1.5275    1.8493 H   0  0  0  0  0  0  0  0  0  0  0  0
   -4.0789    0.5869    0.7989 H   0  0  0  0  0  0  0  0  0  0  0  0
   -0.3184   -1.2774    3.0926 Si  0  0  0  0  0  4  0  0  0  0  0  0
    0.0098   -0.4534    4.2838 H   0  0  0  0  0  0  0  0  0  0  0  0
    1.0012   -1.6813    2.5272 H   0  0  0  0  0  0  0  0  0  0  0  0
   -4.0489    0.8640    3.8031 Si  0  0  0  0  0  4  0  0  0  0  0  0
   -4.6771   -0.1452    4.7019 H   0  0  0  0  0  0  0  0  0  0  0  0
   -5.0505    1.9376    3.5659 H   0  0  0  0  0  0  0  0  0  0  0  0
   -1.3517   -3.1091    3.7639 Si  0  0  0  0  0  4  0  0  0  0  0  0
   -0.3965   -4.2489    3.8670 H   0  0  0  0  0  0  0  0  0  0  0  0
   -2.4256   -3.5339    2.8920 H   0  0  0  0  0  0  0  0  0  0  0  0
   -2.1721   -2.7948    5.8284 Si  0  0  0  0  0  4  0  0  0  0  0  0
   -3.2118   -1.7590    5.7191 H   0  0  0  0  0  0  0  0  0  0  0  0
   -2.7882   -4.0479    6.3025 H   0  0  0  0  0  0  0  0  0  0  0  0
   -2.3421    1.7590    4.8835 Si  0  0  0  0  0  4  0  0  0  0  0  0
   -1.4947    2.5169    3.9703 H   0  0  0  0  0  0  0  0  0  0  0  0
   -1.6296    0.7037    5.6003 H   0  0  0  0  0  0  0  0  0  0  0  0
   -3.1420    3.1723    6.4492 Si  0  0  0  0  0  4  0  0  0  0  0  0
   -4.4094    3.7446    6.0352 H   0  0  0  0  0  0  0  0  0  0  0  0
   -3.2975    2.4548    7.7290 H   0  0  0  0  0  0  0  0  0  0  0  0
   -0.6061   -2.0715    7.2244 Si  0  0  0  0  0  4  0  0  0  0  0  0
   -0.9610   -2.5662    8.5824 H   0  0  0  0  0  0  0  0  0  0  0  0
   -0.5766   -0.6028    7.3205 H   0  0  0  0  0  0  0  0  0  0  0  0
   -1.5691    4.7431    6.7595 Si  0  0  0  0  0  4  0  0  0  0  0  0
   -1.7009    5.3780    8.0637 H   0  0  0  0  0  0  0  0  0  0  0  0
   -1.6780    5.7305    5.6732 H   0  0  0  0  0  0  0  0  0  0  0  0
    1.4219   -2.7789    6.6589 Si  0  0  0  0  0  4  0  0  0  0  0  0
    1.3988   -3.7614    5.5794 H   0  0  0  0  0  0  0  0  0  0  0  0
    2.0437   -3.4412    7.8343 H   0  0  0  0  0  0  0  0  0  0  0  0
    2.7414   -1.0362    6.1501 Si  0  0  0  0  0  4  0  0  0  0  0  0
    2.3701    0.0764    7.0529 H   0  0  0  0  0  0  0  0  0  0  0  0
    2.5194   -0.5701    4.7862 H   0  0  0  0  0  0  0  0  0  0  0  0
    4.1458   -1.3420    6.4090 H   0  0  0  0  0  0  0  0  0  0  0  0
    0.4223    3.7030    6.6469 Si  0  0  0  0  0  4  0  0  0  0  0  0
    1.3120    4.5089    5.8100 H   0  0  0  0  0  0  0  0  0  0  0  0
    0.9473    3.4899    7.9962 H   0  0  0  0  0  0  0  0  0  0  0  0
    0.2849    2.3811    6.0073 H   0  0  0  0  0  0  0  0  0  0  0  0
  1  2  1  0
  1  5  1  0
  2  3  1  0
  2  4  1  0
  2  8  1  0
  5  6  1  0
  5  7  1  0
  5 11  1  0
  8  9  1  0
  8 10  1  0
  8 17  1  0
 11 12  1  0
 11 13  1  0
 11 14  1  0
 14 15  1  0
 14 16  1  0
 14 23  1  0
 17 18  1  0
 17 19  1  0
 17 20  1  0
 20 21  1  0
 20 22  1  0
 20 26  1  0
 23 24  1  0
 23 25  1  0
 23 29  1  0
 26 27  1  0
 26 28  1  0
 26 36  1  0
 29 30  1  0
 29 31  1  0
 29 32  1  0
 32 33  1  0
 32 34  1  0
 32 35  1  0
 36 37  1  0
 36 38  1  0
 36 39  1  0
M  CHG  1   1   1
M  RAD  1   1   2
M  END
$$$$

     RDKit          3D

 39 38  0  0  0  0  0  0  0  0999 V2000
   -1.3670   -0.1973    1.6169 S   0  0  0  0  0  2  0  0  0  0  0  0
   -1.4239    1.9245    1.8067 Si  0  0  0  0  0  4  0  0  0  0  0  0
   -1.4771    2.4932    0.4375 H   0  0  0  0  0  0  0  0  0  0  0  0
   -2.5819    2.3653    2.5812 H   0  0  0  0  0  0  0  0  0  0  0  0
   -2.8652   -1.1157    2.8870 Si  0  0  0  0  0  4  0  0  0  0  0  0
   -3.6553   -2.0169    2.0303 H   0  0  0  0  0  0  0  0  0  0  0  0
   -3.7366   -0.1066    3.4855 H   0  0  0  0  0  0  0  0  0  0  0  0
    0.4296    2.6865    2.8009 Si  0  0  0  0  0  4  0  0  0  0  0  0
    0.3427    4.1627    2.8336 H   0  0  0  0  0  0  0  0  0  0  0  0
    1.6091    2.2939    2.0029 H   0  0  0  0  0  0  0  0  0  0  0  0
   -1.7668   -2.3065    4.4168 Si  0  0  0  0  0  4  0  0  0  0  0  0
   -0.5879   -1.4960    4.8294 H   0  0  0  0  0  0  0  0  0  0  0  0
   -1.3903   -3.6177    3.9256 H   0  0  0  0  0  0  0  0  0  0  0  0
   -3.0035   -2.5980    6.2626 Si  0  0  0  0  0  4  0  0  0  0  0  0
   -3.7373   -1.3429    6.5413 H   0  0  0  0  0  0  0  0  0  0  0  0
   -3.9226   -3.7295    6.1070 H   0  0  0  0  0  0  0  0  0  0  0  0
    0.5300    1.8665    4.8743 Si  0  0  0  0  0  4  0  0  0  0  0  0
    1.3880    2.6764    5.7460 H   0  0  0  0  0  0  0  0  0  0  0  0
    1.1039    0.5065    4.7748 H   0  0  0  0  0  0  0  0  0  0  0  0
   -1.5475    1.7148    5.6618 Si  0  0  0  0  0  4  0  0  0  0  0  0
   -1.6854    0.4258    6.3731 H   0  0  0  0  0  0  0  0  0  0  0  0
   -2.5104    1.7184    4.5408 H   0  0  0  0  0  0  0  0  0  0  0  0
   -1.5764   -2.9200    7.9596 Si  0  0  0  0  0  4  0  0  0  0  0  0
   -1.0764   -1.6507    8.4660 H   0  0  0  0  0  0  0  0  0  0  0  0
   -2.2963   -3.5932    9.0575 H   0  0  0  0  0  0  0  0  0  0  0  0
   -2.0163    3.3695    7.0796 Si  0  0  0  0  0  4  0  0  0  0  0  0
   -3.4560    3.6816    6.9352 H   0  0  0  0  0  0  0  0  0  0  0  0
   -1.2201    4.5724    6.7976 H   0  0  0  0  0  0  0  0  0  0  0  0
    0.1118   -4.2320    7.3436 Si  0  0  0  0  0  4  0  0  0  0  0  0
   -0.4014   -5.4785    6.7651 H   0  0  0  0  0  0  0  0  0  0  0  0
    0.8921   -4.5489    8.5562 H   0  0  0  0  0  0  0  0  0  0  0  0
    1.4525   -3.2676    5.8828 Si  0  0  0  0  0  4  0  0  0  0  0  0
    1.7893   -1.8859    6.2226 H   0  0  0  0  0  0  0  0  0  0  0  0
    2.7282   -4.0383    5.8506 H   0  0  0  0  0  0  0  0  0  0  0  0
    0.9286   -3.3259    4.4968 H   0  0  0  0  0  0  0  0  0  0  0  0
   -1.6730    2.6287    9.1652 Si  0  0  0  0  0  4  0  0  0  0  0  0
   -0.9866    1.3247    9.1536 H   0  0  0  0  0  0  0  0  0  0  0  0
   -2.9617    2.4453    9.8626 H   0  0  0  0  0  0  0  0  0  0  0  0
   -0.8333    3.6092    9.8898 H   0  0  0  0  0  0  0  0  0  0  0  0
  1  2  1  0
  1  5  1  0
  2  3  1  0
  2  4  1  0
  2  8  1  0
  5  6  1  0
  5  7  1  0
  5 11  1  0
  8  9  1  0
  8 10  1  0
  8 17  1  0
 11 12  1  0
 11 13  1  0
 11 14  1  0
 14 15  1  0
 14 16  1  0
 14 23  1  0
 17 18  1  0
 17 19  1  0
 17 20  1  0
 20 21  1  0
 20 22  1  0
 20 26  1  0
 23 24  1  0
 23 25  1  0
 23 29  1  0
 26 27  1  0
 26 28  1  0
 26 36  1  0
 29 30  1  0
 29 31  1  0
 29 32  1  0
 32 33  1  0
 32 34  1  0
 32 35  1  0
 36 37  1  0
 36 38  1  0
 36 39  1  0
M  CHG  1   1   1
M  RAD  1   1   2
M  END
$$$$
