
     RDKit          3D

 39 38  0  0  0  0  0  0  0  0999 V2000
   -0.0005    0.0095    3.1931 S   0  0  0  0  0  2  0  0  0  0  0  0
   -0.1323   -2.1030    3.2168 Si  0  0  0  0  0  4  0  0  0  0  0  0
   -1.5385   -2.5138    3.3793 H   0  0  0  0  0  0  0  0  0  0  0  0
    0.2851   -2.6050    1.8792 H   0  0  0  0  0  0  0  0  0  0  0  0
    0.3468    0.8519    5.1165 Si  0  0  0  0  0  4  0  0  0  0  0  0
    1.1215   -0.0772    5.9346 H   0  0  0  0  0  0  0  0  0  0  0  0
    1.1873    2.0682    4.9468 H   0  0  0  0  0  0  0  0  0  0  0  0
    1.1419   -3.0392    4.7673 Si  0  0  0  0  0  4  0  0  0  0  0  0
    2.2186   -2.1570    5.2266 H   0  0  0  0  0  0  0  0  0  0  0  0
    1.7972   -4.2424    4.1985 H   0  0  0  0  0  0  0  0  0  0  0  0
   -1.5571    1.4683    6.0925 Si  0  0  0  0  0  4  0  0  0  0  0  0
   -1.3363    1.6673    7.5352 H   0  0  0  0  0  0  0  0  0  0  0  0
   -2.0230    2.7331    5.5147 H   0  0  0  0  0  0  0  0  0  0  0  0
   -3.0967   -0.1516    5.8580 Si  0  0  0  0  0  4  0  0  0  0  0  0
   -2.4225   -1.4255    5.6588 H   0  0  0  0  0  0  0  0  0  0  0  0
   -3.8344    0.1499    4.6069 H   0  0  0  0  0  0  0  0  0  0  0  0
   -0.0820   -3.7061    6.5134 Si  0  0  0  0  0  4  0  0  0  0  0  0
    0.1523   -5.1464    6.8096 H   0  0  0  0  0  0  0  0  0  0  0  0
   -1.4900   -3.5818    6.1521 H   0  0  0  0  0  0  0  0  0  0  0  0
    0.2957   -2.4530    8.3089 Si  0  0  0  0  0  4  0  0  0  0  0  0
    1.1043   -1.2741    8.0163 H   0  0  0  0  0  0  0  0  0  0  0  0
   -0.9640   -1.9711    8.9195 H   0  0  0  0  0  0  0  0  0  0  0  0
   -4.4483   -0.1188    7.5977 Si  0  0  0  0  0  4  0  0  0  0  0  0
   -5.6134    0.7276    7.2707 H   0  0  0  0  0  0  0  0  0  0  0  0
   -3.7225    0.5087    8.7361 H   0  0  0  0  0  0  0  0  0  0  0  0
    1.3339   -3.7197    9.8335 Si  0  0  0  0  0  4  0  0  0  0  0  0
    1.9002   -4.9289    9.1854 H   0  0  0  0  0  0  0  0  0  0  0  0
    0.4054   -4.1210   10.8805 H   0  0  0  0  0  0  0  0  0  0  0  0
   -5.1445   -2.1046    8.2246 Si  0  0  0  0  0  4  0  0  0  0  0  0
   -4.2997   -2.6278    9.2944 H   0  0  0  0  0  0  0  0  0  0  0  0
   -6.5157   -1.9876    8.7601 H   0  0  0  0  0  0  0  0  0  0  0  0
   -5.1908   -3.5790    6.5649 Si  0  0  0  0  0  4  0  0  0  0  0  0
   -5.7220   -4.8504    7.1170 H   0  0  0  0  0  0  0  0  0  0  0  0
   -6.1060   -3.1794    5.4918 H   0  0  0  0  0  0  0  0  0  0  0  0
   -3.8697   -3.8709    6.0258 H   0  0  0  0  0  0  0  0  0  0  0  0
    2.9924   -2.5424   10.7356 Si  0  0  0  0  0  4  0  0  0  0  0  0
    3.6669   -3.4027   11.7233 H   0  0  0  0  0  0  0  0  0  0  0  0
    3.9024   -2.1261    9.6664 H   0  0  0  0  0  0  0  0  0  0  0  0
    2.4230   -1.3683   11.4170 H   0  0  0  0  0  0  0  0  0  0  0  0
  1  2  1  0
  1  5  1  0
  2  3  1  0
  2  4  1  0
  2  8  1  0
  5  6  1  0
  5  7  1  0
  5 11  1  0
  8  9  1  0
  8 10  1  0
  8 17  1  0
 11 12  1  0
 11 13  1  0
 11 14  1  0
 14 15  1  0
 14 16  1  0
 14 23  1  0
 17 18  1  0
 17 19  1  0
 17 20  1  0
 20 21  1  0
 20 22  1  0
 20 26  1  0
 23 24  1  0
 23 25  1  0
 23 29  1  0
 26 27  1  0
 26 28  1  0
 26 36  1  0
 29 30  1  0
 29 31  1  0
 29 32  1  0
 32 33  1  0
 32 34  1  0
 32 35  1  0
 36 37  1  0
 36 38  1  0
 36 39  1  0
M  CHG  1   1   1
M  RAD  1   1   2
M  END
$$$$

     RDKit          3D

 39 38  0  0  0  0  0  0  0  0999 V2000
   -0.0005    0.0095    3.1931 S   0  0  0  0  0  2  0  0  0  0  0  0
    1.3045   -1.5163    3.9199 Si  0  0  0  0  0  4  0  0  0  0  0  0
    2.3312   -0.9641    4.7976 H   0  0  0  0  0  0  0  0  0  0  0  0
    2.0048   -2.1038    2.7549 H   0  0  0  0  0  0  0  0  0  0  0  0
    0.7912    1.9709    3.5798 Si  0  0  0  0  0  4  0  0  0  0  0  0
   -0.3009    2.7702    4.1584 H   0  0  0  0  0  0  0  0  0  0  0  0
    1.2639    2.6074    2.3500 H   0  0  0  0  0  0  0  0  0  0  0  0
    0.1692   -3.1755    4.8995 Si  0  0  0  0  0  4  0  0  0  0  0  0
   -0.7887   -3.6923    3.8871 H   0  0  0  0  0  0  0  0  0  0  0  0
    1.1029   -4.2490    5.2211 H   0  0  0  0  0  0  0  0  0  0  0  0
    2.4189    1.8209    5.1139 Si  0  0  0  0  0  4  0  0  0  0  0  0
    3.4801    0.9622    4.5143 H   0  0  0  0  0  0  0  0  0  0  0  0
    2.9625    3.1410    5.3771 H   0  0  0  0  0  0  0  0  0  0  0  0
    1.5667    0.9161    6.9463 Si  0  0  0  0  0  4  0  0  0  0  0  0
    2.1544   -0.4113    7.1269 H   0  0  0  0  0  0  0  0  0  0  0  0
    0.1063    0.7863    6.8814 H   0  0  0  0  0  0  0  0  0  0  0  0
   -0.9934   -2.4725    6.6423 Si  0  0  0  0  0  4  0  0  0  0  0  0
   -1.3791   -1.0515    6.4247 H   0  0  0  0  0  0  0  0  0  0  0  0
   -2.2825   -3.2174    6.6959 H   0  0  0  0  0  0  0  0  0  0  0  0
    0.0509   -2.7630    8.5618 Si  0  0  0  0  0  4  0  0  0  0  0  0
    0.0242   -1.4800    9.3065 H   0  0  0  0  0  0  0  0  0  0  0  0
   -0.6594   -3.7464    9.4260 H   0  0  0  0  0  0  0  0  0  0  0  0
    2.0955    2.1141    8.7768 Si  0  0  0  0  0  4  0  0  0  0  0  0
    1.0476    1.8542    9.7962 H   0  0  0  0  0  0  0  0  0  0  0  0
    2.1347    3.5394    8.4914 H   0  0  0  0  0  0  0  0  0  0  0  0
    2.1337   -3.4910    8.3129 Si  0  0  0  0  0  4  0  0  0  0  0  0
    2.7068   -3.1285    7.0151 H   0  0  0  0  0  0  0  0  0  0  0  0
    2.9661   -2.7988    9.3394 H   0  0  0  0  0  0  0  0  0  0  0  0
    4.0231    1.3647    9.6187 Si  0  0  0  0  0  4  0  0  0  0  0  0
    4.7096    0.4614    8.6909 H   0  0  0  0  0  0  0  0  0  0  0  0
    4.8469    2.5265    9.9451 H   0  0  0  0  0  0  0  0  0  0  0  0
    3.6833    0.2256   11.5188 Si  0  0  0  0  0  4  0  0  0  0  0  0
    4.7361    0.4980   12.5013 H   0  0  0  0  0  0  0  0  0  0  0  0
    3.6843   -1.2259   11.2710 H   0  0  0  0  0  0  0  0  0  0  0  0
    2.3805    0.6236   12.0726 H   0  0  0  0  0  0  0  0  0  0  0  0
    2.2992   -5.6772    8.7179 Si  0  0  0  0  0  4  0  0  0  0  0  0
    1.3827   -6.0397    9.7992 H   0  0  0  0  0  0  0  0  0  0  0  0
    2.0431   -6.4028    7.4767 H   0  0  0  0  0  0  0  0  0  0  0  0
    3.6600   -5.9588    9.1692 H   0  0  0  0  0  0  0  0  0  0  0  0
  1  2  1  0
  1  5  1  0
  2  3  1  0
  2  4  1  0
  2  8  1  0
  5  6  1  0
  5  7  1  0
  5 11  1  0
  8  9  1  0
  8 10  1  0
  8 17  1  0
 11 12  1  0
 11 13  1  0
 11 14  1  0
 14 15  1  0
 14 16  1  0
 14 23  1  0
 17 18  1  0
 17 19  1  0
 17 20  1  0
 20 21  1  0
 20 22  1  0
 20 26  1  0
 23 24  1  0
 23 25  1  0
 23 29  1  0
 26 27  1  0
 26 28  1  0
 26 36  1  0
 29 30  1  0
 29 31  1  0
 29 32  1  0
 32 33  1  0
 32 34  1  0
 32 35  1  0
 36 37  1  0
 36 38  1  0
 36 39  1  0
M  CHG  1   1   1
M  RAD  1   1   2
M  END
$$$$

     RDKit          3D

 39 38  0  0  0  0  0  0  0  0999 V2000
   -0.0005    0.0095    3.1931 S   0  0  0  0  0  2  0  0  0  0  0  0
   -2.0854   -0.2307    3.1215 Si  0  0  0  0  0  4  0  0  0  0  0  0
   -2.5995    0.4927    1.9374 H   0  0  0  0  0  0  0  0  0  0  0  0
   -2.4154   -1.6644    2.8815 H   0  0  0  0  0  0  0  0  0  0  0  0
    1.0259   -1.0776    4.6331 Si  0  0  0  0  0  4  0  0  0  0  0  0
    2.4559   -1.1833    4.2806 H   0  0  0  0  0  0  0  0  0  0  0  0
    0.9808   -0.3768    5.9421 H   0  0  0  0  0  0  0  0  0  0  0  0
   -3.1566    0.4889    4.9070 Si  0  0  0  0  0  4  0  0  0  0  0  0
   -3.6828   -0.6785    5.6680 H   0  0  0  0  0  0  0  0  0  0  0  0
   -4.3551    1.2731    4.5161 H   0  0  0  0  0  0  0  0  0  0  0  0
    0.2794   -3.1495    4.9760 Si  0  0  0  0  0  4  0  0  0  0  0  0
   -1.0993   -3.0569    5.4969 H   0  0  0  0  0  0  0  0  0  0  0  0
    0.3675   -3.9724    3.7731 H   0  0  0  0  0  0  0  0  0  0  0  0
    1.5512   -3.9779    6.6237 Si  0  0  0  0  0  4  0  0  0  0  0  0
    2.8797   -4.2885    6.1102 H   0  0  0  0  0  0  0  0  0  0  0  0
    1.6553   -2.9263    7.6667 H   0  0  0  0  0  0  0  0  0  0  0  0
   -1.8868    1.6679    6.2801 Si  0  0  0  0  0  4  0  0  0  0  0  0
   -2.3400    3.0884    6.2444 H   0  0  0  0  0  0  0  0  0  0  0  0
   -0.4940    1.6490    5.8720 H   0  0  0  0  0  0  0  0  0  0  0  0
   -2.1361    1.0009    8.4098 Si  0  0  0  0  0  4  0  0  0  0  0  0
   -3.5348    0.5115    8.5690 H   0  0  0  0  0  0  0  0  0  0  0  0
   -1.9250    2.1058    9.3459 H   0  0  0  0  0  0  0  0  0  0  0  0
    0.6725   -5.8156    7.4977 Si  0  0  0  0  0  4  0  0  0  0  0  0
    1.4180   -6.1298    8.7259 H   0  0  0  0  0  0  0  0  0  0  0  0
    0.7874   -6.9247    6.5693 H   0  0  0  0  0  0  0  0  0  0  0  0
   -0.7745   -0.6728    8.9018 Si  0  0  0  0  0  4  0  0  0  0  0  0
   -1.4135   -1.6260    9.8333 H   0  0  0  0  0  0  0  0  0  0  0  0
   -0.4757   -1.4084    7.6764 H   0  0  0  0  0  0  0  0  0  0  0  0
   -1.4648   -5.5350    8.0603 Si  0  0  0  0  0  4  0  0  0  0  0  0
   -1.8108   -6.6208    9.0199 H   0  0  0  0  0  0  0  0  0  0  0  0
   -1.6968   -4.2575    8.7357 H   0  0  0  0  0  0  0  0  0  0  0  0
   -2.7783   -5.7820    6.2845 Si  0  0  0  0  0  4  0  0  0  0  0  0
   -3.5315   -7.0660    6.3375 H   0  0  0  0  0  0  0  0  0  0  0  0
   -3.7842   -4.7110    6.2823 H   0  0  0  0  0  0  0  0  0  0  0  0
   -1.9585   -5.7647    5.0732 H   0  0  0  0  0  0  0  0  0  0  0  0
    1.1455    0.0310    9.7745 Si  0  0  0  0  0  4  0  0  0  0  0  0
    1.3372    1.4644    9.5223 H   0  0  0  0  0  0  0  0  0  0  0  0
    2.2855   -0.6858    9.1599 H   0  0  0  0  0  0  0  0  0  0  0  0
    1.1703   -0.2436   11.2109 H   0  0  0  0  0  0  0  0  0  0  0  0
  1  2  1  0
  1  5  1  0
  2  3  1  0
  2  4  1  0
  2  8  1  0
  5  6  1  0
  5  7  1  0
  5 11  1  0
  8  9  1  0
  8 10  1  0
  8 17  1  0
 11 12  1  0
 11 13  1  0
 11 14  1  0
 14 15  1  0
 14 16  1  0
 14 23  1  0
 17 18  1  0
 17 19  1  0
 17 20  1  0
 20 21  1  0
 20 22  1  0
 20 26  1  0
 23 24  1  0
 23 25  1  0
 23 29  1  0
 26 27  1  0
 26 28  1  0
 26 36  1  0
 29 30  1  0
 29 31  1  0
 29 32  1  0
 32 33  1  0
 32 34  1  0
 32 35  1  0
 36 37  1  0
 36 38  1  0
 36 39  1  0
M  CHG  1   1   1
M  RAD  1   1   2
M  END
$$$$

     RDKit          3D

 39 38  0  0  0  0  0  0  0  0999 V2000
   -0.0005    0.0095    3.1931 S   0  0  0  0  0  2  0  0  0  0  0  0
   -2.0871    0.3434    3.5243 Si  0  0  0  0  0  4  0  0  0  0  0  0
   -2.9121   -0.5520    2.6776 H   0  0  0  0  0  0  0  0  0  0  0  0
   -2.4857    1.7150    3.1854 H   0  0  0  0  0  0  0  0  0  0  0  0
    1.1526    1.7842    3.4946 Si  0  0  0  0  0  4  0  0  0  0  0  0
    2.4029    1.6408    2.7157 H   0  0  0  0  0  0  0  0  0  0  0  0
    0.4475    2.9901    3.0318 H   0  0  0  0  0  0  0  0  0  0  0  0
   -2.6252   -0.0719    5.6426 Si  0  0  0  0  0  4  0  0  0  0  0  0
   -3.9243    0.4888    5.9934 H   0  0  0  0  0  0  0  0  0  0  0  0
   -1.5940    0.4890    6.5172 H   0  0  0  0  0  0  0  0  0  0  0  0
    1.7573    1.9670    5.6453 Si  0  0  0  0  0  4  0  0  0  0  0  0
    3.1233    2.4828    5.7713 H   0  0  0  0  0  0  0  0  0  0  0  0
    1.7515    0.5976    6.2034 H   0  0  0  0  0  0  0  0  0  0  0  0
    0.2778    3.1967    6.7536 Si  0  0  0  0  0  4  0  0  0  0  0  0
   -0.5523    2.3434    7.6291 H   0  0  0  0  0  0  0  0  0  0  0  0
   -0.6389    3.8205    5.7766 H   0  0  0  0  0  0  0  0  0  0  0  0
   -2.6593   -2.2906    6.0423 Si  0  0  0  0  0  4  0  0  0  0  0  0
   -3.4258   -2.5525    7.2579 H   0  0  0  0  0  0  0  0  0  0  0  0
   -3.2681   -2.9241    4.8854 H   0  0  0  0  0  0  0  0  0  0  0  0
   -0.5376   -2.9567    6.2150 Si  0  0  0  0  0  4  0  0  0  0  0  0
    0.1885   -2.3887    5.0495 H   0  0  0  0  0  0  0  0  0  0  0  0
   -0.4867   -4.4101    6.1204 H   0  0  0  0  0  0  0  0  0  0  0  0
    1.2433    4.7350    8.0286 Si  0  0  0  0  0  4  0  0  0  0  0  0
    0.5799    4.8078    9.3572 H   0  0  0  0  0  0  0  0  0  0  0  0
    2.6556    4.4875    8.2611 H   0  0  0  0  0  0  0  0  0  0  0  0
    0.4246   -2.2298    8.0652 Si  0  0  0  0  0  4  0  0  0  0  0  0
    1.4666   -1.2195    7.7902 H   0  0  0  0  0  0  0  0  0  0  0  0
    1.1081   -3.3704    8.7233 H   0  0  0  0  0  0  0  0  0  0  0  0
    0.9207    6.7364    7.0619 Si  0  0  0  0  0  4  0  0  0  0  0  0
    1.5973    7.7459    7.8779 H   0  0  0  0  0  0  0  0  0  0  0  0
    1.4078    6.6833    5.6876 H   0  0  0  0  0  0  0  0  0  0  0  0
   -1.2954    7.1055    7.0574 Si  0  0  0  0  0  4  0  0  0  0  0  0
   -1.7891    7.1405    8.4365 H   0  0  0  0  0  0  0  0  0  0  0  0
   -1.9236    5.9723    6.3739 H   0  0  0  0  0  0  0  0  0  0  0  0
   -1.5697    8.3876    6.4260 H   0  0  0  0  0  0  0  0  0  0  0  0
   -1.0166   -1.3652    9.5081 Si  0  0  0  0  0  4  0  0  0  0  0  0
   -2.3150   -2.0500    9.4976 H   0  0  0  0  0  0  0  0  0  0  0  0
   -1.1618    0.0712    9.2028 H   0  0  0  0  0  0  0  0  0  0  0  0
   -0.4322   -1.4806   10.8638 H   0  0  0  0  0  0  0  0  0  0  0  0
  1  2  1  0
  1  5  1  0
  2  3  1  0
  2  4  1  0
  2  8  1  0
  5  6  1  0
  5  7  1  0
  5 11  1  0
  8  9  1  0
  8 10  1  0
  8 17  1  0
 11 12  1  0
 11 13  1  0
 11 14  1  0
 14 15  1  0
 14 16  1  0
 14 23  1  0
 17 18  1  0
 17 19  1  0
 17 20  1  0
 20 21  1  0
 20 22  1  0
 20 26  1  0
 23 24  1  0
 23 25  1  0
 23 29  1  0
 26 27  1  0
 26 28  1  0
 26 36  1  0
 29 30  1  0
 29 31  1  0
 29 32  1  0
 32 33  1  0
 32 34  1  0
 32 35  1  0
 36 37  1  0
 36 38  1  0
 36 39  1  0
M  CHG  1   1   1
M  RAD  1   1   2
M  END
$$$$

     RDKit          3D

 39 38  0  0  0  0  0  0  0  0999 V2000
   -0.0005    0.0095    3.1931 S   0  0  0  0  0  2  0  0  0  0  0  0
   -1.5712    1.1781    3.9954 Si  0  0  0  0  0  4  0  0  0  0  0  0
   -2.7612    1.1086    3.0984 H   0  0  0  0  0  0  0  0  0  0  0  0
   -1.1473    2.6080    3.9500 H   0  0  0  0  0  0  0  0  0  0  0  0
    1.5929   -0.1986    4.5585 Si  0  0  0  0  0  4  0  0  0  0  0  0
    1.1453    0.3264    5.8811 H   0  0  0  0  0  0  0  0  0  0  0  0
    1.9367   -1.6150    4.7928 H   0  0  0  0  0  0  0  0  0  0  0  0
   -2.0995    0.6776    6.0673 Si  0  0  0  0  0  4  0  0  0  0  0  0
   -3.5862    0.6959    6.1867 H   0  0  0  0  0  0  0  0  0  0  0  0
   -1.6305    1.7344    7.0067 H   0  0  0  0  0  0  0  0  0  0  0  0
    3.4240    0.8867    3.9811 Si  0  0  0  0  0  4  0  0  0  0  0  0
    3.1264    2.2120    3.3994 H   0  0  0  0  0  0  0  0  0  0  0  0
    4.2462    0.1510    3.0192 H   0  0  0  0  0  0  0  0  0  0  0  0
    4.5654    1.2564    5.8945 Si  0  0  0  0  0  4  0  0  0  0  0  0
    5.9115    1.7104    5.6302 H   0  0  0  0  0  0  0  0  0  0  0  0
    4.5317   -0.0370    6.6327 H   0  0  0  0  0  0  0  0  0  0  0  0
   -1.3667   -1.2617    6.7718 Si  0  0  0  0  0  4  0  0  0  0  0  0
   -2.3874   -2.3083    6.4803 H   0  0  0  0  0  0  0  0  0  0  0  0
   -0.1215   -1.7033    6.1902 H   0  0  0  0  0  0  0  0  0  0  0  0
   -1.0837   -1.2229    9.0110 Si  0  0  0  0  0  4  0  0  0  0  0  0
   -1.9321   -0.2123    9.6298 H   0  0  0  0  0  0  0  0  0  0  0  0
   -1.3869   -2.5778    9.5309 H   0  0  0  0  0  0  0  0  0  0  0  0
    3.3748    2.7315    7.0828 Si  0  0  0  0  0  4  0  0  0  0  0  0
    4.2922    3.6869    7.6984 H   0  0  0  0  0  0  0  0  0  0  0  0
    2.6346    2.0563    8.1743 H   0  0  0  0  0  0  0  0  0  0  0  0
    1.0364   -0.7766    9.5283 Si  0  0  0  0  0  4  0  0  0  0  0  0
    1.7169   -1.9630   10.1040 H   0  0  0  0  0  0  0  0  0  0  0  0
    1.8133   -0.3366    8.3734 H   0  0  0  0  0  0  0  0  0  0  0  0
    1.8651    3.7476    5.7877 Si  0  0  0  0  0  4  0  0  0  0  0  0
    1.3451    2.7339    4.8280 H   0  0  0  0  0  0  0  0  0  0  0  0
    2.5417    4.8156    5.0562 H   0  0  0  0  0  0  0  0  0  0  0  0
    0.1882    4.5832    6.9578 Si  0  0  0  0  0  4  0  0  0  0  0  0
   -1.0792    4.2961    6.2555 H   0  0  0  0  0  0  0  0  0  0  0  0
    0.1073    4.0668    8.3167 H   0  0  0  0  0  0  0  0  0  0  0  0
    0.2863    6.0637    7.0232 H   0  0  0  0  0  0  0  0  0  0  0  0
    1.1698    0.8397   11.0781 Si  0  0  0  0  0  4  0  0  0  0  0  0
    0.8937    0.3028   12.4280 H   0  0  0  0  0  0  0  0  0  0  0  0
    0.2695    1.9456   10.7400 H   0  0  0  0  0  0  0  0  0  0  0  0
    2.5320    1.3761   11.1076 H   0  0  0  0  0  0  0  0  0  0  0  0
  1  2  1  0
  1  5  1  0
  2  3  1  0
  2  4  1  0
  2  8  1  0
  5  6  1  0
  5  7  1  0
  5 11  1  0
  8  9  1  0
  8 10  1  0
  8 17  1  0
 11 12  1  0
 11 13  1  0
 11 14  1  0
 14 15  1  0
 14 16  1  0
 14 23  1  0
 17 18  1  0
 17 19  1  0
 17 20  1  0
 20 21  1  0
 20 22  1  0
 20 26  1  0
 23 24  1  0
 23 25  1  0
 23 29  1  0
 26 27  1  0
 26 28  1  0
 26 36  1  0
 29 30  1  0
 29 31  1  0
 29 32  1  0
 32 33  1  0
 32 34  1  0
 32 35  1  0
 36 37  1  0
 36 38  1  0
 36 39  1  0
M  CHG  1   1   1
M  RAD  1   1   2
M  END
$$$$

     RDKit          3D

 39 38  0  0  0  0  0  0  0  0999 V2000
   -0.0005    0.0095    3.1931 S   0  0  0  0  0  2  0  0  0  0  0  0
    0.4853   -2.0693    2.9277 Si  0  0  0  0  0  4  0  0  0  0  0  0
    1.9101   -2.3272    3.1130 H   0  0  0  0  0  0  0  0  0  0  0  0
    0.1358   -2.4098    1.5286 H   0  0  0  0  0  0  0  0  0  0  0  0
   -0.4019    0.3963    5.2866 Si  0  0  0  0  0  4  0  0  0  0  0  0
   -0.7031    1.8262    5.4220 H   0  0  0  0  0  0  0  0  0  0  0  0
   -1.5368   -0.4103    5.7424 H   0  0  0  0  0  0  0  0  0  0  0  0
   -0.7715   -3.3085    4.2883 Si  0  0  0  0  0  4  0  0  0  0  0  0
   -1.3727   -2.4268    5.3067 H   0  0  0  0  0  0  0  0  0  0  0  0
   -1.8483   -4.0044    3.5606 H   0  0  0  0  0  0  0  0  0  0  0  0
    1.4776   -0.1422    6.4020 Si  0  0  0  0  0  4  0  0  0  0  0  0
    1.4746   -1.6269    6.5068 H   0  0  0  0  0  0  0  0  0  0  0  0
    1.4663    0.3772    7.7567 H   0  0  0  0  0  0  0  0  0  0  0  0
    3.2023    0.5570    5.1985 Si  0  0  0  0  0  4  0  0  0  0  0  0
    2.8019    1.1375    3.9156 H   0  0  0  0  0  0  0  0  0  0  0  0
    4.0543   -0.6221    4.8710 H   0  0  0  0  0  0  0  0  0  0  0  0
    0.4549   -4.9012    5.2911 Si  0  0  0  0  0  4  0  0  0  0  0  0
    0.2824   -6.1837    4.5901 H   0  0  0  0  0  0  0  0  0  0  0  0
    1.8569   -4.5161    5.3953 H   0  0  0  0  0  0  0  0  0  0  0  0
   -0.3709   -5.1413    7.3712 Si  0  0  0  0  0  4  0  0  0  0  0  0
   -0.0171   -6.4299    7.9430 H   0  0  0  0  0  0  0  0  0  0  0  0
    0.1412   -4.0046    8.1691 H   0  0  0  0  0  0  0  0  0  0  0  0
    4.4631    2.0150    6.2780 Si  0  0  0  0  0  4  0  0  0  0  0  0
    4.8393    1.5534    7.6097 H   0  0  0  0  0  0  0  0  0  0  0  0
    5.7321    2.1690    5.5097 H   0  0  0  0  0  0  0  0  0  0  0  0
   -2.5953   -4.8773    7.2196 Si  0  0  0  0  0  4  0  0  0  0  0  0
   -3.2244   -5.0872    8.5147 H   0  0  0  0  0  0  0  0  0  0  0  0
   -2.8270   -3.4763    6.8123 H   0  0  0  0  0  0  0  0  0  0  0  0
    3.5306    4.0378    6.3718 Si  0  0  0  0  0  4  0  0  0  0  0  0
    4.5389    4.9472    6.9830 H   0  0  0  0  0  0  0  0  0  0  0  0
    3.2979    4.5389    5.0156 H   0  0  0  0  0  0  0  0  0  0  0  0
    1.7238    4.0792    7.6360 Si  0  0  0  0  0  4  0  0  0  0  0  0
    1.3729    2.7507    8.0991 H   0  0  0  0  0  0  0  0  0  0  0  0
    0.5849    4.5896    6.8359 H   0  0  0  0  0  0  0  0  0  0  0  0
    1.9205    4.9222    8.8496 H   0  0  0  0  0  0  0  0  0  0  0  0
   -3.4570   -6.1931    5.6460 Si  0  0  0  0  0  4  0  0  0  0  0  0
   -4.2620   -5.4169    4.6828 H   0  0  0  0  0  0  0  0  0  0  0  0
   -4.3673   -7.1764    6.2727 H   0  0  0  0  0  0  0  0  0  0  0  0
   -2.3858   -6.9340    4.9584 H   0  0  0  0  0  0  0  0  0  0  0  0
  1  2  1  0
  1  5  1  0
  2  3  1  0
  2  4  1  0
  2  8  1  0
  5  6  1  0
  5  7  1  0
  5 11  1  0
  8  9  1  0
  8 10  1  0
  8 17  1  0
 11 12  1  0
 11 13  1  0
 11 14  1  0
 14 15  1  0
 14 16  1  0
 14 23  1  0
 17 18  1  0
 17 19  1  0
 17 20  1  0
 20 21  1  0
 20 22  1  0
 20 26  1  0
 23 24  1  0
 23 25  1  0
 23 29  1  0
 26 27  1  0
 26 28  1  0
 26 36  1  0
 29 30  1  0
 29 31  1  0
 29 32  1  0
 32 33  1  0
 32 34  1  0
 32 35  1  0
 36 37  1  0
 36 38  1  0
 36 39  1  0
M  CHG  1   1   1
M  RAD  1   1   2
M  END
$$$$

     RDKit          3D

 39 38  0  0  0  0  0  0  0  0999 V2000
   -0.0005    0.0095    3.1931 S   0  0  0  0  0  2  0  0  0  0  0  0
    0.3436    2.0445    3.7102 Si  0  0  0  0  0  4  0  0  0  0  0  0
   -0.1353    2.8811    2.5741 H   0  0  0  0  0  0  0  0  0  0  0  0
   -0.3170    2.4578    4.9309 H   0  0  0  0  0  0  0  0  0  0  0  0
    0.0110   -1.2849    4.8839 Si  0  0  0  0  0  4  0  0  0  0  0  0
   -0.9067   -2.4118    4.7491 H   0  0  0  0  0  0  0  0  0  0  0  0
    1.3643   -1.8072    5.1501 H   0  0  0  0  0  0  0  0  0  0  0  0
    2.5496    2.4696    3.9059 Si  0  0  0  0  0  4  0  0  0  0  0  0
    2.7659    3.9081    3.9780 H   0  0  0  0  0  0  0  0  0  0  0  0
    3.1573    2.0142    2.6222 H   0  0  0  0  0  0  0  0  0  0  0  0
   -0.6391   -0.1108    6.6922 Si  0  0  0  0  0  4  0  0  0  0  0  0
   -1.7133    0.7879    6.2707 H   0  0  0  0  0  0  0  0  0  0  0  0
    0.5439    0.6078    7.1723 H   0  0  0  0  0  0  0  0  0  0  0  0
   -1.2930   -1.4881    8.3285 Si  0  0  0  0  0  4  0  0  0  0  0  0
   -0.5559   -1.2093    9.5868 H   0  0  0  0  0  0  0  0  0  0  0  0
   -1.0778   -2.8701    7.9411 H   0  0  0  0  0  0  0  0  0  0  0  0
    3.4119    1.3407    5.5853 Si  0  0  0  0  0  4  0  0  0  0  0  0
    4.7144    0.7655    5.1435 H   0  0  0  0  0  0  0  0  0  0  0  0
    2.5536    0.2139    5.9210 H   0  0  0  0  0  0  0  0  0  0  0  0
    3.8505    2.6181    7.3545 Si  0  0  0  0  0  4  0  0  0  0  0  0
    4.8354    3.6255    7.0051 H   0  0  0  0  0  0  0  0  0  0  0  0
    4.4288    1.7209    8.3945 H   0  0  0  0  0  0  0  0  0  0  0  0
   -3.4799   -1.1353    8.6688 Si  0  0  0  0  0  4  0  0  0  0  0  0
   -4.2498   -1.9659    7.7383 H   0  0  0  0  0  0  0  0  0  0  0  0
   -3.8304   -1.4101   10.0761 H   0  0  0  0  0  0  0  0  0  0  0  0
    2.0605    3.5809    8.1889 Si  0  0  0  0  0  4  0  0  0  0  0  0
    1.8053    4.8487    7.4835 H   0  0  0  0  0  0  0  0  0  0  0  0
    0.8702    2.7585    8.1861 H   0  0  0  0  0  0  0  0  0  0  0  0
   -3.8720    1.0366    8.2390 Si  0  0  0  0  0  4  0  0  0  0  0  0
   -5.2098    1.4004    8.7115 H   0  0  0  0  0  0  0  0  0  0  0  0
   -3.7215    1.2669    6.8017 H   0  0  0  0  0  0  0  0  0  0  0  0
   -2.2882    2.2134    9.3040 Si  0  0  0  0  0  4  0  0  0  0  0  0
   -2.2319    3.5941    8.8393 H   0  0  0  0  0  0  0  0  0  0  0  0
   -1.0067    1.5214    9.0542 H   0  0  0  0  0  0  0  0  0  0  0  0
   -2.5210    2.1699   10.7472 H   0  0  0  0  0  0  0  0  0  0  0  0
    2.4883    4.1319   10.3338 Si  0  0  0  0  0  4  0  0  0  0  0  0
    1.5135    5.1234   10.7694 H   0  0  0  0  0  0  0  0  0  0  0  0
    2.4302    2.9266   11.1894 H   0  0  0  0  0  0  0  0  0  0  0  0
    3.8548    4.6756   10.3882 H   0  0  0  0  0  0  0  0  0  0  0  0
  1  2  1  0
  1  5  1  0
  2  3  1  0
  2  4  1  0
  2  8  1  0
  5  6  1  0
  5  7  1  0
  5 11  1  0
  8  9  1  0
  8 10  1  0
  8 17  1  0
 11 12  1  0
 11 13  1  0
 11 14  1  0
 14 15  1  0
 14 16  1  0
 14 23  1  0
 17 18  1  0
 17 19  1  0
 17 20  1  0
 20 21  1  0
 20 22  1  0
 20 26  1  0
 23 24  1  0
 23 25  1  0
 23 29  1  0
 26 27  1  0
 26 28  1  0
 26 36  1  0
 29 30  1  0
 29 31  1  0
 29 32  1  0
 32 33  1  0
 32 34  1  0
 32 35  1  0
 36 37  1  0
 36 38  1  0
 36 39  1  0
M  CHG  1   1   1
M  RAD  1   1   2
M  END
$$$$
