
     RDKit          3D

 39 38  0  0  0  0  0  0  0  0999 V2000
    1.3286   -0.0329    2.4383 S   0  0  0  0  0  2  0  0  0  0  0  0
    0.8494   -2.0778    2.8047 Si  0  0  0  0  0  4  0  0  0  0  0  0
    0.7922   -2.8047    1.5189 H   0  0  0  0  0  0  0  0  0  0  0  0
   -0.4494   -2.1732    3.4980 H   0  0  0  0  0  0  0  0  0  0  0  0
   -0.1102    1.2683    3.4089 Si  0  0  0  0  0  4  0  0  0  0  0  0
   -1.4153    1.0961    2.7270 H   0  0  0  0  0  0  0  0  0  0  0  0
    0.3506    2.6478    3.3056 H   0  0  0  0  0  0  0  0  0  0  0  0
    2.3972   -3.0804    4.0687 Si  0  0  0  0  0  4  0  0  0  0  0  0
    3.6557   -3.2366    3.3593 H   0  0  0  0  0  0  0  0  0  0  0  0
    1.8646   -4.4209    4.4122 H   0  0  0  0  0  0  0  0  0  0  0  0
   -0.3245    0.5952    5.5022 Si  0  0  0  0  0  4  0  0  0  0  0  0
    0.8664    0.9058    6.2879 H   0  0  0  0  0  0  0  0  0  0  0  0
   -0.4549   -0.8897    5.4893 H   0  0  0  0  0  0  0  0  0  0  0  0
   -2.1735    1.4407    6.4619 Si  0  0  0  0  0  4  0  0  0  0  0  0
   -1.7397    2.6854    7.1553 H   0  0  0  0  0  0  0  0  0  0  0  0
   -3.1473    1.7314    5.4289 H   0  0  0  0  0  0  0  0  0  0  0  0
    2.6366   -1.9430    5.9616 Si  0  0  0  0  0  4  0  0  0  0  0  0
    2.7841   -0.5083    5.5974 H   0  0  0  0  0  0  0  0  0  0  0  0
    1.4407   -2.1381    6.7964 H   0  0  0  0  0  0  0  0  0  0  0  0
    4.4520   -2.5363    7.0834 Si  0  0  0  0  0  4  0  0  0  0  0  0
    5.3106   -3.4135    6.2970 H   0  0  0  0  0  0  0  0  0  0  0  0
    4.0496   -3.2837    8.3036 H   0  0  0  0  0  0  0  0  0  0  0  0
   -2.8649   -0.0395    7.9463 Si  0  0  0  0  0  4  0  0  0  0  0  0
   -1.7962   -0.2529    8.9307 H   0  0  0  0  0  0  0  0  0  0  0  0
   -3.1344   -1.3060    7.2620 H   0  0  0  0  0  0  0  0  0  0  0  0
    5.5750   -0.7065    7.7731 Si  0  0  0  0  0  4  0  0  0  0  0  0
    6.9794   -0.8375    7.4226 H   0  0  0  0  0  0  0  0  0  0  0  0
    5.3437   -0.4780    9.1975 H   0  0  0  0  0  0  0  0  0  0  0  0
   -4.7138    0.5892    9.0011 Si  0  0  0  0  0  4  0  0  0  0  0  0
   -5.0087   -0.4633   10.0081 H   0  0  0  0  0  0  0  0  0  0  0  0
   -5.8623    0.6133    8.0870 H   0  0  0  0  0  0  0  0  0  0  0  0
   -4.4731    2.5058   10.0743 Si  0  0  0  0  0  4  0  0  0  0  0  0
   -5.6644    3.3579    9.8130 H   0  0  0  0  0  0  0  0  0  0  0  0
   -4.3805    2.2915   11.5470 H   0  0  0  0  0  0  0  0  0  0  0  0
   -3.2392    3.1579    9.6656 H   0  0  0  0  0  0  0  0  0  0  0  0
    4.7369    1.0551    6.6534 Si  0  0  0  0  0  4  0  0  0  0  0  0
    4.4890    0.6345    5.2474 H   0  0  0  0  0  0  0  0  0  0  0  0
    5.6664    2.1676    6.6224 H   0  0  0  0  0  0  0  0  0  0  0  0
    3.4191    1.4300    7.1971 H   0  0  0  0  0  0  0  0  0  0  0  0
  1  2  1  0
  1  5  1  0
  2  3  1  0
  2  4  1  0
  2  8  1  0
  5  6  1  0
  5  7  1  0
  5 11  1  0
  8  9  1  0
  8 10  1  0
  8 17  1  0
 11 12  1  0
 11 13  1  0
 11 14  1  0
 14 15  1  0
 14 16  1  0
 14 23  1  0
 17 18  1  0
 17 19  1  0
 17 20  1  0
 20 21  1  0
 20 22  1  0
 20 26  1  0
 23 24  1  0
 23 25  1  0
 23 29  1  0
 26 27  1  0
 26 28  1  0
 26 36  1  0
 29 30  1  0
 29 31  1  0
 29 32  1  0
 32 33  1  0
 32 34  1  0
 32 35  1  0
 36 37  1  0
 36 38  1  0
 36 39  1  0
M  CHG  1   1   1
M  RAD  1   1   2
M  END
$$$$

     RDKit          3D

 39 38  0  0  0  0  0  0  0  0999 V2000
    1.3286   -0.0329    2.4383 S   0  0  0  0  0  2  0  0  0  0  0  0
    1.1997   -2.1468    2.6841 Si  0  0  0  0  0  4  0  0  0  0  0  0
    1.2302   -2.7962    1.3566 H   0  0  0  0  0  0  0  0  0  0  0  0
   -0.0484   -2.4956    3.3893 H   0  0  0  0  0  0  0  0  0  0  0  0
   -0.2792    0.9540    3.5091 Si  0  0  0  0  0  4  0  0  0  0  0  0
   -1.5550    0.6095    2.8372 H   0  0  0  0  0  0  0  0  0  0  0  0
   -0.0529    2.3942    3.4849 H   0  0  0  0  0  0  0  0  0  0  0  0
    2.9215   -2.9532    3.8602 Si  0  0  0  0  0  4  0  0  0  0  0  0
    4.1707   -2.8578    3.1239 H   0  0  0  0  0  0  0  0  0  0  0  0
    2.6241   -4.3810    4.1277 H   0  0  0  0  0  0  0  0  0  0  0  0
   -0.3283    0.1328    5.5594 Si  0  0  0  0  0  4  0  0  0  0  0  0
    0.8148    0.5887    6.3452 H   0  0  0  0  0  0  0  0  0  0  0  0
   -0.2144   -1.3499    5.4563 H   0  0  0  0  0  0  0  0  0  0  0  0
   -2.2663    0.6041    6.5972 Si  0  0  0  0  0  4  0  0  0  0  0  0
   -2.0249    1.8603    7.3601 H   0  0  0  0  0  0  0  0  0  0  0  0
   -3.2999    0.7906    5.5988 H   0  0  0  0  0  0  0  0  0  0  0  0
    3.0186   -1.9052    5.8164 Si  0  0  0  0  0  4  0  0  0  0  0  0
    2.9203   -0.4469    5.5398 H   0  0  0  0  0  0  0  0  0  0  0  0
    1.8919   -2.3434    6.6551 H   0  0  0  0  0  0  0  0  0  0  0  0
    4.9340   -2.2561    6.8720 Si  0  0  0  0  0  4  0  0  0  0  0  0
    5.9047   -2.9320    6.0201 H   0  0  0  0  0  0  0  0  0  0  0  0
    4.6897   -3.1301    8.0493 H   0  0  0  0  0  0  0  0  0  0  0  0
   -2.6692   -1.0545    7.9969 Si  0  0  0  0  0  4  0  0  0  0  0  0
   -1.5558   -1.1463    8.9502 H   0  0  0  0  0  0  0  0  0  0  0  0
   -2.7447   -2.3056    7.2393 H   0  0  0  0  0  0  0  0  0  0  0  0
    5.7592   -0.3101    7.6573 Si  0  0  0  0  0  4  0  0  0  0  0  0
    7.1570   -0.1869    7.2786 H   0  0  0  0  0  0  0  0  0  0  0  0
    5.5291   -0.2069    9.0964 H   0  0  0  0  0  0  0  0  0  0  0  0
   -4.5692   -0.8023    9.1160 Si  0  0  0  0  0  4  0  0  0  0  0  0
   -4.6628   -1.9464   10.0600 H   0  0  0  0  0  0  0  0  0  0  0  0
   -5.7285   -0.9140    8.2224 H   0  0  0  0  0  0  0  0  0  0  0  0
   -4.6187    1.0613   10.3025 Si  0  0  0  0  0  4  0  0  0  0  0  0
   -5.9395    1.7193   10.1123 H   0  0  0  0  0  0  0  0  0  0  0  0
   -4.4557    0.7790   11.7575 H   0  0  0  0  0  0  0  0  0  0  0  0
   -3.5187    1.9307    9.9168 H   0  0  0  0  0  0  0  0  0  0  0  0
    4.6167    1.3522    6.6617 Si  0  0  0  0  0  4  0  0  0  0  0  0
    4.4061    0.9798    5.2362 H   0  0  0  0  0  0  0  0  0  0  0  0
    5.3505    2.6025    6.6862 H   0  0  0  0  0  0  0  0  0  0  0  0
    3.2692    1.4721    7.2472 H   0  0  0  0  0  0  0  0  0  0  0  0
  1  2  1  0
  1  5  1  0
  2  3  1  0
  2  4  1  0
  2  8  1  0
  5  6  1  0
  5  7  1  0
  5 11  1  0
  8  9  1  0
  8 10  1  0
  8 17  1  0
 11 12  1  0
 11 13  1  0
 11 14  1  0
 14 15  1  0
 14 16  1  0
 14 23  1  0
 17 18  1  0
 17 19  1  0
 17 20  1  0
 20 21  1  0
 20 22  1  0
 20 26  1  0
 23 24  1  0
 23 25  1  0
 23 29  1  0
 26 27  1  0
 26 28  1  0
 26 36  1  0
 29 30  1  0
 29 31  1  0
 29 32  1  0
 32 33  1  0
 32 34  1  0
 32 35  1  0
 36 37  1  0
 36 38  1  0
 36 39  1  0
M  CHG  1   1   1
M  RAD  1   1   2
M  END
$$$$

     RDKit          3D

 39 38  0  0  0  0  0  0  0  0999 V2000
    1.3286   -0.0329    2.4383 S   0  0  0  0  0  2  0  0  0  0  0  0
    2.3673   -1.9327    2.3626 Si  0  0  0  0  0  4  0  0  0  0  0  0
    3.4570   -1.7605    1.3771 H   0  0  0  0  0  0  0  0  0  0  0  0
    1.4999   -2.9961    1.8880 H   0  0  0  0  0  0  0  0  0  0  0  0
    0.5351    0.3140    4.3734 Si  0  0  0  0  0  4  0  0  0  0  0  0
   -0.9549    0.3311    4.3527 H   0  0  0  0  0  0  0  0  0  0  0  0
    0.8923   -0.8419    5.2420 H   0  0  0  0  0  0  0  0  0  0  0  0
    3.2014   -2.3695    4.3673 Si  0  0  0  0  0  4  0  0  0  0  0  0
    4.6481   -2.6952    4.2143 H   0  0  0  0  0  0  0  0  0  0  0  0
    3.1477   -1.1643    5.2059 H   0  0  0  0  0  0  0  0  0  0  0  0
    1.3589    2.1378    5.3319 Si  0  0  0  0  0  4  0  0  0  0  0  0
    1.5052    3.2493    4.4092 H   0  0  0  0  0  0  0  0  0  0  0  0
    2.6553    1.7652    5.9580 H   0  0  0  0  0  0  0  0  0  0  0  0
   -0.0233    2.6620    7.0352 Si  0  0  0  0  0  4  0  0  0  0  0  0
   -0.2952    1.3860    7.7425 H   0  0  0  0  0  0  0  0  0  0  0  0
    0.5974    3.6540    7.8908 H   0  0  0  0  0  0  0  0  0  0  0  0
    2.2354   -4.1214    5.3279 Si  0  0  0  0  0  4  0  0  0  0  0  0
    2.6961   -4.1659    6.7380 H   0  0  0  0  0  0  0  0  0  0  0  0
    2.7752   -5.3411    4.6708 H   0  0  0  0  0  0  0  0  0  0  0  0
    0.0376   -4.0658    5.2159 Si  0  0  0  0  0  4  0  0  0  0  0  0
   -0.4229   -5.0739    4.2307 H   0  0  0  0  0  0  0  0  0  0  0  0
   -0.5104   -2.7856    4.8106 H   0  0  0  0  0  0  0  0  0  0  0  0
   -1.9400    3.3574    6.1402 Si  0  0  0  0  0  4  0  0  0  0  0  0
   -1.8216    4.7941    5.8503 H   0  0  0  0  0  0  0  0  0  0  0  0
   -2.1516    2.6674    4.8422 H   0  0  0  0  0  0  0  0  0  0  0  0
   -0.8349   -4.5699    7.2234 Si  0  0  0  0  0  4  0  0  0  0  0  0
   -1.6553   -3.4640    7.7383 H   0  0  0  0  0  0  0  0  0  0  0  0
   -1.6607   -5.7609    7.1300 H   0  0  0  0  0  0  0  0  0  0  0  0
   -3.6429    2.9715    7.5266 Si  0  0  0  0  0  4  0  0  0  0  0  0
   -3.5312    1.6367    8.1077 H   0  0  0  0  0  0  0  0  0  0  0  0
   -4.8973    3.0596    6.7814 H   0  0  0  0  0  0  0  0  0  0  0  0
   -3.6060    4.5167    9.1551 Si  0  0  0  0  0  4  0  0  0  0  0  0
   -3.8164    5.8488    8.5589 H   0  0  0  0  0  0  0  0  0  0  0  0
   -4.6980    4.1964   10.0746 H   0  0  0  0  0  0  0  0  0  0  0  0
   -2.3164    4.4412    9.8376 H   0  0  0  0  0  0  0  0  0  0  0  0
    0.8181   -4.9078    8.6881 Si  0  0  0  0  0  4  0  0  0  0  0  0
    1.7963   -5.8083    8.0308 H   0  0  0  0  0  0  0  0  0  0  0  0
    1.5147   -3.6569    9.0047 H   0  0  0  0  0  0  0  0  0  0  0  0
    0.2679   -5.5368    9.9084 H   0  0  0  0  0  0  0  0  0  0  0  0
  1  2  1  0
  1  5  1  0
  2  3  1  0
  2  4  1  0
  2  8  1  0
  5  6  1  0
  5  7  1  0
  5 11  1  0
  8  9  1  0
  8 10  1  0
  8 17  1  0
 11 12  1  0
 11 13  1  0
 11 14  1  0
 14 15  1  0
 14 16  1  0
 14 23  1  0
 17 18  1  0
 17 19  1  0
 17 20  1  0
 20 21  1  0
 20 22  1  0
 20 26  1  0
 23 24  1  0
 23 25  1  0
 23 29  1  0
 26 27  1  0
 26 28  1  0
 26 36  1  0
 29 30  1  0
 29 31  1  0
 29 32  1  0
 32 33  1  0
 32 34  1  0
 32 35  1  0
 36 37  1  0
 36 38  1  0
 36 39  1  0
M  CHG  1   1   1
M  RAD  1   1   2
M  END
$$$$
