
     RDKit          3D

 39 38  0  0  0  0  0  0  0  0999 V2000
    0.7768    1.0181   -2.6064 S   0  0  0  0  0  2  0  0  0  0  0  0
    2.0544    2.7262   -2.3618 Si  0  0  0  0  0  4  0  0  0  0  0  0
    3.0827    2.3659   -1.3789 H   0  0  0  0  0  0  0  0  0  0  0  0
    1.3237    3.8878   -1.8491 H   0  0  0  0  0  0  0  0  0  0  0  0
    0.5963    0.5820   -4.6651 Si  0  0  0  0  0  4  0  0  0  0  0  0
   -0.4708    1.3958   -5.2985 H   0  0  0  0  0  0  0  0  0  0  0  0
    1.8296    0.8775   -5.4312 H   0  0  0  0  0  0  0  0  0  0  0  0
    3.0107    3.2895   -4.3204 Si  0  0  0  0  0  4  0  0  0  0  0  0
    3.4111    2.1169   -5.0786 H   0  0  0  0  0  0  0  0  0  0  0  0
    4.2629    4.0161   -3.9625 H   0  0  0  0  0  0  0  0  0  0  0  0
    0.0956   -1.5582   -5.0531 Si  0  0  0  0  0  4  0  0  0  0  0  0
    1.1744   -2.4593   -4.6924 H   0  0  0  0  0  0  0  0  0  0  0  0
   -1.0910   -1.9199   -4.2624 H   0  0  0  0  0  0  0  0  0  0  0  0
   -0.3663   -1.6891   -7.2613 Si  0  0  0  0  0  4  0  0  0  0  0  0
    0.3581   -0.6412   -7.9834 H   0  0  0  0  0  0  0  0  0  0  0  0
   -0.0156   -3.0251   -7.7292 H   0  0  0  0  0  0  0  0  0  0  0  0
    1.7143    4.6835   -5.4331 Si  0  0  0  0  0  4  0  0  0  0  0  0
    2.3919    5.9798   -5.6903 H   0  0  0  0  0  0  0  0  0  0  0  0
    0.5042    4.9939   -4.6282 H   0  0  0  0  0  0  0  0  0  0  0  0
    1.0377    3.8790   -7.3810 Si  0  0  0  0  0  4  0  0  0  0  0  0
    0.8086    2.4493   -7.3776 H   0  0  0  0  0  0  0  0  0  0  0  0
    2.0551    4.1799   -8.4259 H   0  0  0  0  0  0  0  0  0  0  0  0
   -2.5975   -1.3799   -7.4252 Si  0  0  0  0  0  4  0  0  0  0  0  0
   -3.0627   -1.6343   -8.7843 H   0  0  0  0  0  0  0  0  0  0  0  0
   -2.8966   -0.0117   -6.9681 H   0  0  0  0  0  0  0  0  0  0  0  0
   -0.8437    4.9302   -7.9665 Si  0  0  0  0  0  4  0  0  0  0  0  0
   -1.4319    5.6178   -6.7878 H   0  0  0  0  0  0  0  0  0  0  0  0
   -0.5985    5.9275   -9.0093 H   0  0  0  0  0  0  0  0  0  0  0  0
   -3.4707   -2.8780   -5.9782 Si  0  0  0  0  0  4  0  0  0  0  0  0
   -4.8805   -3.0894   -6.2178 H   0  0  0  0  0  0  0  0  0  0  0  0
   -3.1503   -2.3989   -4.6395 H   0  0  0  0  0  0  0  0  0  0  0  0
   -2.2775   -4.7657   -6.2962 Si  0  0  0  0  0  4  0  0  0  0  0  0
   -2.4323   -5.2110   -7.6893 H   0  0  0  0  0  0  0  0  0  0  0  0
   -2.6187   -5.7824   -5.3227 H   0  0  0  0  0  0  0  0  0  0  0  0
   -0.8439   -4.3836   -6.1496 H   0  0  0  0  0  0  0  0  0  0  0  0
   -2.3715    3.4918   -8.7206 Si  0  0  0  0  0  4  0  0  0  0  0  0
   -1.9325    2.8292   -9.9467 H   0  0  0  0  0  0  0  0  0  0  0  0
   -2.7031    2.5172   -7.6805 H   0  0  0  0  0  0  0  0  0  0  0  0
   -3.5811    4.2590   -9.0432 H   0  0  0  0  0  0  0  0  0  0  0  0
  1  2  1  0
  1  5  1  0
  2  3  1  0
  2  4  1  0
  2  8  1  0
  5  6  1  0
  5  7  1  0
  5 11  1  0
  8  9  1  0
  8 10  1  0
  8 17  1  0
 11 12  1  0
 11 13  1  0
 11 14  1  0
 14 15  1  0
 14 16  1  0
 14 23  1  0
 17 18  1  0
 17 19  1  0
 17 20  1  0
 20 21  1  0
 20 22  1  0
 20 26  1  0
 23 24  1  0
 23 25  1  0
 23 29  1  0
 26 27  1  0
 26 28  1  0
 26 36  1  0
 29 30  1  0
 29 31  1  0
 29 32  1  0
 32 33  1  0
 32 34  1  0
 32 35  1  0
 36 37  1  0
 36 38  1  0
 36 39  1  0
M  CHG  1   1   1
M  RAD  1   1   2
M  END
$$$$

     RDKit          3D

 39 38  0  0  0  0  0  0  0  0999 V2000
    0.7768    1.0181   -2.6064 S   0  0  0  0  0  2  0  0  0  0  0  0
    2.3600    2.4740   -2.7540 Si  0  0  0  0  0  4  0  0  0  0  0  0
    3.3564    2.1812   -1.7175 H   0  0  0  0  0  0  0  0  0  0  0  0
    1.8600    3.8287   -2.5160 H   0  0  0  0  0  0  0  0  0  0  0  0
   -0.6108    1.2246   -4.2110 Si  0  0  0  0  0  4  0  0  0  0  0  0
   -0.4662    2.5848   -4.7643 H   0  0  0  0  0  0  0  0  0  0  0  0
   -1.9878    1.0343   -3.6991 H   0  0  0  0  0  0  0  0  0  0  0  0
    3.2193    2.3924   -4.7958 Si  0  0  0  0  0  4  0  0  0  0  0  0
    2.6162    3.4620   -5.6256 H   0  0  0  0  0  0  0  0  0  0  0  0
    2.8807    1.0867   -5.4059 H   0  0  0  0  0  0  0  0  0  0  0  0
   -0.2829   -0.3265   -5.7934 Si  0  0  0  0  0  4  0  0  0  0  0  0
    1.1289   -0.7514   -5.8143 H   0  0  0  0  0  0  0  0  0  0  0  0
   -1.1313   -1.4965   -5.5956 H   0  0  0  0  0  0  0  0  0  0  0  0
   -0.6981    0.5704   -7.8192 Si  0  0  0  0  0  4  0  0  0  0  0  0
   -2.1362    0.7410   -8.0326 H   0  0  0  0  0  0  0  0  0  0  0  0
   -0.1243   -0.3389   -8.8288 H   0  0  0  0  0  0  0  0  0  0  0  0
    5.4364    2.7180   -4.7743 Si  0  0  0  0  0  4  0  0  0  0  0  0
    5.7708    4.0646   -5.2898 H   0  0  0  0  0  0  0  0  0  0  0  0
    5.9899    2.5540   -3.4452 H   0  0  0  0  0  0  0  0  0  0  0  0
    6.3273    1.2532   -6.2354 Si  0  0  0  0  0  4  0  0  0  0  0  0
    7.7471    1.4838   -6.4260 H   0  0  0  0  0  0  0  0  0  0  0  0
    6.0538   -0.0927   -5.6905 H   0  0  0  0  0  0  0  0  0  0  0  0
    0.3887    2.5231   -7.8962 Si  0  0  0  0  0  4  0  0  0  0  0  0
    1.8327    2.2360   -7.8651 H   0  0  0  0  0  0  0  0  0  0  0  0
    0.0485    3.2438   -6.6363 H   0  0  0  0  0  0  0  0  0  0  0  0
    5.1759    1.5219   -8.1521 Si  0  0  0  0  0  4  0  0  0  0  0  0
    4.8364    2.9497   -8.2747 H   0  0  0  0  0  0  0  0  0  0  0  0
    3.9171    0.7648   -8.1016 H   0  0  0  0  0  0  0  0  0  0  0  0
   -0.1776    3.7169   -9.6726 Si  0  0  0  0  0  4  0  0  0  0  0  0
    0.8932    3.6413  -10.6876 H   0  0  0  0  0  0  0  0  0  0  0  0
   -1.4084    3.2546  -10.3045 H   0  0  0  0  0  0  0  0  0  0  0  0
   -0.3485    5.8671   -9.0225 Si  0  0  0  0  0  4  0  0  0  0  0  0
    0.8133    6.1218   -8.1352 H   0  0  0  0  0  0  0  0  0  0  0  0
   -0.3760    6.7694  -10.1581 H   0  0  0  0  0  0  0  0  0  0  0  0
   -1.5444    5.9800   -8.1650 H   0  0  0  0  0  0  0  0  0  0  0  0
    6.3801    0.8909   -9.9053 Si  0  0  0  0  0  4  0  0  0  0  0  0
    5.5004    0.5674  -11.0302 H   0  0  0  0  0  0  0  0  0  0  0  0
    7.3193    1.9784  -10.2268 H   0  0  0  0  0  0  0  0  0  0  0  0
    7.1447   -0.2994   -9.5349 H   0  0  0  0  0  0  0  0  0  0  0  0
  1  2  1  0
  1  5  1  0
  2  3  1  0
  2  4  1  0
  2  8  1  0
  5  6  1  0
  5  7  1  0
  5 11  1  0
  8  9  1  0
  8 10  1  0
  8 17  1  0
 11 12  1  0
 11 13  1  0
 11 14  1  0
 14 15  1  0
 14 16  1  0
 14 23  1  0
 17 18  1  0
 17 19  1  0
 17 20  1  0
 20 21  1  0
 20 22  1  0
 20 26  1  0
 23 24  1  0
 23 25  1  0
 23 29  1  0
 26 27  1  0
 26 28  1  0
 26 36  1  0
 29 30  1  0
 29 31  1  0
 29 32  1  0
 32 33  1  0
 32 34  1  0
 32 35  1  0
 36 37  1  0
 36 38  1  0
 36 39  1  0
M  CHG  1   1   1
M  RAD  1   1   2
M  END
$$$$

     RDKit          3D

 39 38  0  0  0  0  0  0  0  0999 V2000
    0.7768    1.0181   -2.6064 S   0  0  0  0  0  2  0  0  0  0  0  0
    1.2070    3.0322   -3.2440 Si  0  0  0  0  0  4  0  0  0  0  0  0
    1.9562    3.7055   -2.1771 H   0  0  0  0  0  0  0  0  0  0  0  0
   -0.0231    3.7928   -3.4678 H   0  0  0  0  0  0  0  0  0  0  0  0
   -0.1172   -0.1120   -4.1769 Si  0  0  0  0  0  4  0  0  0  0  0  0
   -0.6845    0.8375   -5.1536 H   0  0  0  0  0  0  0  0  0  0  0  0
   -1.1941   -0.9631   -3.6200 H   0  0  0  0  0  0  0  0  0  0  0  0
    2.3393    2.9536   -5.1482 Si  0  0  0  0  0  4  0  0  0  0  0  0
    1.4068    3.1536   -6.2826 H   0  0  0  0  0  0  0  0  0  0  0  0
    2.9539    1.6138   -5.2847 H   0  0  0  0  0  0  0  0  0  0  0  0
    1.3597   -1.4841   -5.1534 Si  0  0  0  0  0  4  0  0  0  0  0  0
    2.7241   -0.9362   -5.0424 H   0  0  0  0  0  0  0  0  0  0  0  0
    1.3323   -2.8206   -4.5697 H   0  0  0  0  0  0  0  0  0  0  0  0
    0.9144   -1.6167   -7.3590 Si  0  0  0  0  0  4  0  0  0  0  0  0
   -0.2760   -2.4321   -7.6058 H   0  0  0  0  0  0  0  0  0  0  0  0
    2.0974   -2.2084   -8.0117 H   0  0  0  0  0  0  0  0  0  0  0  0
    3.8933    4.5648   -5.2541 Si  0  0  0  0  0  4  0  0  0  0  0  0
    3.4760    5.6310   -6.1920 H   0  0  0  0  0  0  0  0  0  0  0  0
    4.1600    5.1395   -3.9509 H   0  0  0  0  0  0  0  0  0  0  0  0
    5.7396    3.6355   -6.1495 Si  0  0  0  0  0  4  0  0  0  0  0  0
    6.7627    4.6288   -6.4173 H   0  0  0  0  0  0  0  0  0  0  0  0
    6.1986    2.6151   -5.1844 H   0  0  0  0  0  0  0  0  0  0  0  0
    0.6501    0.4792   -8.0919 Si  0  0  0  0  0  4  0  0  0  0  0  0
    1.9494    1.1629   -7.9782 H   0  0  0  0  0  0  0  0  0  0  0  0
   -0.2888    1.1417   -7.1422 H   0  0  0  0  0  0  0  0  0  0  0  0
    5.0578    2.6132   -8.0368 Si  0  0  0  0  0  4  0  0  0  0  0  0
    3.9837    3.4304   -8.6262 H   0  0  0  0  0  0  0  0  0  0  0  0
    4.4960    1.2910   -7.7265 H   0  0  0  0  0  0  0  0  0  0  0  0
   -0.1367    0.5405  -10.1604 Si  0  0  0  0  0  4  0  0  0  0  0  0
    0.9538    0.8714  -11.1004 H   0  0  0  0  0  0  0  0  0  0  0  0
   -0.7119   -0.7287  -10.5920 H   0  0  0  0  0  0  0  0  0  0  0  0
   -1.6526    2.2038  -10.2639 Si  0  0  0  0  0  4  0  0  0  0  0  0
   -1.0618    3.3450   -9.5218 H   0  0  0  0  0  0  0  0  0  0  0  0
   -1.9728    2.5520  -11.6353 H   0  0  0  0  0  0  0  0  0  0  0  0
   -2.8321    1.7815   -9.4838 H   0  0  0  0  0  0  0  0  0  0  0  0
    6.7241    2.4167   -9.4883 Si  0  0  0  0  0  4  0  0  0  0  0  0
    6.4433    1.3345  -10.4337 H   0  0  0  0  0  0  0  0  0  0  0  0
    6.8958    3.7149  -10.1617 H   0  0  0  0  0  0  0  0  0  0  0  0
    7.9458    2.1036   -8.7479 H   0  0  0  0  0  0  0  0  0  0  0  0
  1  2  1  0
  1  5  1  0
  2  3  1  0
  2  4  1  0
  2  8  1  0
  5  6  1  0
  5  7  1  0
  5 11  1  0
  8  9  1  0
  8 10  1  0
  8 17  1  0
 11 12  1  0
 11 13  1  0
 11 14  1  0
 14 15  1  0
 14 16  1  0
 14 23  1  0
 17 18  1  0
 17 19  1  0
 17 20  1  0
 20 21  1  0
 20 22  1  0
 20 26  1  0
 23 24  1  0
 23 25  1  0
 23 29  1  0
 26 27  1  0
 26 28  1  0
 26 36  1  0
 29 30  1  0
 29 31  1  0
 29 32  1  0
 32 33  1  0
 32 34  1  0
 32 35  1  0
 36 37  1  0
 36 38  1  0
 36 39  1  0
M  CHG  1   1   1
M  RAD  1   1   2
M  END
$$$$

     RDKit          3D

 39 38  0  0  0  0  0  0  0  0999 V2000
    0.7768    1.0181   -2.6064 S   0  0  0  0  0  2  0  0  0  0  0  0
    0.6648    2.9643   -3.5273 Si  0  0  0  0  0  4  0  0  0  0  0  0
    1.1219    3.9636   -2.5549 H   0  0  0  0  0  0  0  0  0  0  0  0
   -0.7118    3.3008   -3.8926 H   0  0  0  0  0  0  0  0  0  0  0  0
    0.3429   -0.5244   -4.0117 Si  0  0  0  0  0  4  0  0  0  0  0  0
   -0.4023    0.0792   -5.1331 H   0  0  0  0  0  0  0  0  0  0  0  0
   -0.4858   -1.5653   -3.3605 H   0  0  0  0  0  0  0  0  0  0  0  0
    1.8973    2.9562   -5.3698 Si  0  0  0  0  0  4  0  0  0  0  0  0
    1.0237    2.7228   -6.5440 H   0  0  0  0  0  0  0  0  0  0  0  0
    2.8715    1.8444   -5.2893 H   0  0  0  0  0  0  0  0  0  0  0  0
    2.2074   -1.5331   -4.7353 Si  0  0  0  0  0  4  0  0  0  0  0  0
    3.3523   -0.6060   -4.6739 H   0  0  0  0  0  0  0  0  0  0  0  0
    2.5182   -2.7285   -3.9592 H   0  0  0  0  0  0  0  0  0  0  0  0
    1.9649   -2.0876   -6.9066 Si  0  0  0  0  0  4  0  0  0  0  0  0
    1.0708   -3.2367   -7.0579 H   0  0  0  0  0  0  0  0  0  0  0  0
    3.3071   -2.3969   -7.4341 H   0  0  0  0  0  0  0  0  0  0  0  0
    2.9392    4.9163   -5.6772 Si  0  0  0  0  0  4  0  0  0  0  0  0
    2.3023    5.6791   -6.7741 H   0  0  0  0  0  0  0  0  0  0  0  0
    2.9464    5.7155   -4.4685 H   0  0  0  0  0  0  0  0  0  0  0  0
    5.0275    4.4447   -6.3778 Si  0  0  0  0  0  4  0  0  0  0  0  0
    5.7456    5.6443   -6.7659 H   0  0  0  0  0  0  0  0  0  0  0  0
    5.6897    3.7411   -5.2599 H   0  0  0  0  0  0  0  0  0  0  0  0
    1.1713   -0.2767   -7.9510 Si  0  0  0  0  0  4  0  0  0  0  0  0
    2.2155    0.7609   -7.9089 H   0  0  0  0  0  0  0  0  0  0  0  0
    0.0231    0.2104   -7.1345 H   0  0  0  0  0  0  0  0  0  0  0  0
    4.7875    3.0223   -8.1072 Si  0  0  0  0  0  4  0  0  0  0  0  0
    3.5686    3.4074   -8.8385 H   0  0  0  0  0  0  0  0  0  0  0  0
    4.6007    1.6494   -7.6165 H   0  0  0  0  0  0  0  0  0  0  0  0
    0.5381   -0.7270  -10.0242 Si  0  0  0  0  0  4  0  0  0  0  0  0
    1.5516   -0.2275  -10.9759 H   0  0  0  0  0  0  0  0  0  0  0  0
    0.3729   -2.1544  -10.2751 H   0  0  0  0  0  0  0  0  0  0  0  0
   -1.3738    0.3994  -10.4126 Si  0  0  0  0  0  4  0  0  0  0  0  0
   -1.1784    1.7523   -9.8352 H   0  0  0  0  0  0  0  0  0  0  0  0
   -1.6873    0.4504  -11.8282 H   0  0  0  0  0  0  0  0  0  0  0  0
   -2.4361   -0.2342   -9.6075 H   0  0  0  0  0  0  0  0  0  0  0  0
    6.5344    3.1178   -9.4714 Si  0  0  0  0  0  4  0  0  0  0  0  0
    6.6325    1.8823  -10.2509 H   0  0  0  0  0  0  0  0  0  0  0  0
    6.3786    4.3060  -10.3270 H   0  0  0  0  0  0  0  0  0  0  0  0
    7.7429    3.2735   -8.6627 H   0  0  0  0  0  0  0  0  0  0  0  0
  1  2  1  0
  1  5  1  0
  2  3  1  0
  2  4  1  0
  2  8  1  0
  5  6  1  0
  5  7  1  0
  5 11  1  0
  8  9  1  0
  8 10  1  0
  8 17  1  0
 11 12  1  0
 11 13  1  0
 11 14  1  0
 14 15  1  0
 14 16  1  0
 14 23  1  0
 17 18  1  0
 17 19  1  0
 17 20  1  0
 20 21  1  0
 20 22  1  0
 20 26  1  0
 23 24  1  0
 23 25  1  0
 23 29  1  0
 26 27  1  0
 26 28  1  0
 26 36  1  0
 29 30  1  0
 29 31  1  0
 29 32  1  0
 32 33  1  0
 32 34  1  0
 32 35  1  0
 36 37  1  0
 36 38  1  0
 36 39  1  0
M  CHG  1   1   1
M  RAD  1   1   2
M  END
$$$$

     RDKit          3D

 39 38  0  0  0  0  0  0  0  0999 V2000
    0.7768    1.0181   -2.6064 S   0  0  0  0  0  2  0  0  0  0  0  0
    1.3947   -0.8144   -3.5418 Si  0  0  0  0  0  4  0  0  0  0  0  0
    0.4478   -1.9055   -3.2587 H   0  0  0  0  0  0  0  0  0  0  0  0
    2.7047   -1.2587   -3.0027 H   0  0  0  0  0  0  0  0  0  0  0  0
    2.4018    2.3445   -2.2845 Si  0  0  0  0  0  4  0  0  0  0  0  0
    3.0547    1.9598   -1.0051 H   0  0  0  0  0  0  0  0  0  0  0  0
    1.8422    3.7020   -2.0446 H   0  0  0  0  0  0  0  0  0  0  0  0
    1.5108   -0.4621   -5.7166 Si  0  0  0  0  0  4  0  0  0  0  0  0
    1.1429    0.9135   -6.0979 H   0  0  0  0  0  0  0  0  0  0  0  0
    2.9268   -0.6333   -6.1491 H   0  0  0  0  0  0  0  0  0  0  0  0
    3.8897    2.3226   -3.9088 Si  0  0  0  0  0  4  0  0  0  0  0  0
    3.7936    1.1525   -4.7782 H   0  0  0  0  0  0  0  0  0  0  0  0
    5.2590    2.2984   -3.3218 H   0  0  0  0  0  0  0  0  0  0  0  0
    3.7787    4.1405   -5.1976 Si  0  0  0  0  0  4  0  0  0  0  0  0
    2.8810    3.9291   -6.3482 H   0  0  0  0  0  0  0  0  0  0  0  0
    3.3236    5.3131   -4.4589 H   0  0  0  0  0  0  0  0  0  0  0  0
    0.2754   -1.8636   -6.8966 Si  0  0  0  0  0  4  0  0  0  0  0  0
    0.0192   -3.1077   -6.1402 H   0  0  0  0  0  0  0  0  0  0  0  0
   -1.0621   -1.2571   -7.1505 H   0  0  0  0  0  0  0  0  0  0  0  0
    1.2653   -2.3227   -8.8495 Si  0  0  0  0  0  4  0  0  0  0  0  0
    1.5778   -3.7418   -8.9086 H   0  0  0  0  0  0  0  0  0  0  0  0
    0.3974   -1.9000   -9.9643 H   0  0  0  0  0  0  0  0  0  0  0  0
    5.8257    4.5438   -6.0178 Si  0  0  0  0  0  4  0  0  0  0  0  0
    5.8732    5.8409   -6.7190 H   0  0  0  0  0  0  0  0  0  0  0  0
    6.7587    4.5405   -4.8756 H   0  0  0  0  0  0  0  0  0  0  0  0
    3.1397   -1.0792   -9.0094 Si  0  0  0  0  0  4  0  0  0  0  0  0
    3.8342   -1.3164  -10.2550 H   0  0  0  0  0  0  0  0  0  0  0  0
    3.9826   -1.4768   -7.8465 H   0  0  0  0  0  0  0  0  0  0  0  0
    6.4334    2.9338   -7.4327 Si  0  0  0  0  0  4  0  0  0  0  0  0
    7.8755    2.6896   -7.3593 H   0  0  0  0  0  0  0  0  0  0  0  0
    5.7296    1.6858   -7.0924 H   0  0  0  0  0  0  0  0  0  0  0  0
    5.8608    3.5226   -9.5137 Si  0  0  0  0  0  4  0  0  0  0  0  0
    4.5240    4.1538   -9.4437 H   0  0  0  0  0  0  0  0  0  0  0  0
    6.8226    4.4830  -10.0843 H   0  0  0  0  0  0  0  0  0  0  0  0
    5.7470    2.3221  -10.3429 H   0  0  0  0  0  0  0  0  0  0  0  0
    2.5614    1.0434   -8.7043 Si  0  0  0  0  0  4  0  0  0  0  0  0
    2.8996    1.8034   -9.9148 H   0  0  0  0  0  0  0  0  0  0  0  0
    1.1062    1.2009   -8.5002 H   0  0  0  0  0  0  0  0  0  0  0  0
    3.2344    1.6434   -7.5465 H   0  0  0  0  0  0  0  0  0  0  0  0
  1  2  1  0
  1  5  1  0
  2  3  1  0
  2  4  1  0
  2  8  1  0
  5  6  1  0
  5  7  1  0
  5 11  1  0
  8  9  1  0
  8 10  1  0
  8 17  1  0
 11 12  1  0
 11 13  1  0
 11 14  1  0
 14 15  1  0
 14 16  1  0
 14 23  1  0
 17 18  1  0
 17 19  1  0
 17 20  1  0
 20 21  1  0
 20 22  1  0
 20 26  1  0
 23 24  1  0
 23 25  1  0
 23 29  1  0
 26 27  1  0
 26 28  1  0
 26 36  1  0
 29 30  1  0
 29 31  1  0
 29 32  1  0
 32 33  1  0
 32 34  1  0
 32 35  1  0
 36 37  1  0
 36 38  1  0
 36 39  1  0
M  CHG  1   1   1
M  RAD  1   1   2
M  END
$$$$

     RDKit          3D

 39 38  0  0  0  0  0  0  0  0999 V2000
    0.7768    1.0181   -2.6064 S   0  0  0  0  0  2  0  0  0  0  0  0
    2.2591   -0.4021   -3.2649 Si  0  0  0  0  0  4  0  0  0  0  0  0
    1.6774   -1.7471   -3.1897 H   0  0  0  0  0  0  0  0  0  0  0  0
    3.4374   -0.3813   -2.3972 H   0  0  0  0  0  0  0  0  0  0  0  0
    1.4507    3.0204   -2.8879 Si  0  0  0  0  0  4  0  0  0  0  0  0
    2.9220    2.9934   -2.9966 H   0  0  0  0  0  0  0  0  0  0  0  0
    1.0480    3.8439   -1.7242 H   0  0  0  0  0  0  0  0  0  0  0  0
    2.8937    0.1276   -5.3219 Si  0  0  0  0  0  4  0  0  0  0  0  0
    4.1540    0.9050   -5.2622 H   0  0  0  0  0  0  0  0  0  0  0  0
    1.8527    0.9799   -5.9394 H   0  0  0  0  0  0  0  0  0  0  0  0
    0.5273    3.9573   -4.7008 Si  0  0  0  0  0  4  0  0  0  0  0  0
    0.1883    2.9257   -5.6984 H   0  0  0  0  0  0  0  0  0  0  0  0
   -0.6739    4.7166   -4.3715 H   0  0  0  0  0  0  0  0  0  0  0  0
    2.0294    5.3164   -5.6893 Si  0  0  0  0  0  4  0  0  0  0  0  0
    2.2054    6.5502   -4.9216 H   0  0  0  0  0  0  0  0  0  0  0  0
    1.5300    5.6116   -7.0454 H   0  0  0  0  0  0  0  0  0  0  0  0
    3.2792   -1.6970   -6.5647 Si  0  0  0  0  0  4  0  0  0  0  0  0
    4.7324   -1.8940   -6.7650 H   0  0  0  0  0  0  0  0  0  0  0  0
    2.7046   -2.8850   -5.9663 H   0  0  0  0  0  0  0  0  0  0  0  0
    2.4185   -1.2919   -8.6066 Si  0  0  0  0  0  4  0  0  0  0  0  0
    2.7541   -2.3444   -9.5473 H   0  0  0  0  0  0  0  0  0  0  0  0
    0.9585   -1.1604   -8.4214 H   0  0  0  0  0  0  0  0  0  0  0  0
    3.9372    4.1614   -5.8511 Si  0  0  0  0  0  4  0  0  0  0  0  0
    3.7122    3.0500   -6.7905 H   0  0  0  0  0  0  0  0  0  0  0  0
    4.1848    3.5676   -4.5063 H   0  0  0  0  0  0  0  0  0  0  0  0
    3.2639    0.6955   -9.2450 Si  0  0  0  0  0  4  0  0  0  0  0  0
    4.6371    0.7877   -8.7208 H   0  0  0  0  0  0  0  0  0  0  0  0
    2.4849    1.7941   -8.6564 H   0  0  0  0  0  0  0  0  0  0  0  0
    5.6306    5.4425   -6.4783 Si  0  0  0  0  0  4  0  0  0  0  0  0
    5.9379    5.2023   -7.9032 H   0  0  0  0  0  0  0  0  0  0  0  0
    5.3571    6.8673   -6.3271 H   0  0  0  0  0  0  0  0  0  0  0  0
    7.4343    4.8231   -5.2792 Si  0  0  0  0  0  4  0  0  0  0  0  0
    7.4246    3.3394   -5.2588 H   0  0  0  0  0  0  0  0  0  0  0  0
    8.6609    5.3530   -5.8444 H   0  0  0  0  0  0  0  0  0  0  0  0
    7.2096    5.2480   -3.8838 H   0  0  0  0  0  0  0  0  0  0  0  0
    3.2982    0.8786  -11.4557 Si  0  0  0  0  0  4  0  0  0  0  0  0
    3.3330    2.2901  -11.8435 H   0  0  0  0  0  0  0  0  0  0  0  0
    4.4662    0.1341  -11.9555 H   0  0  0  0  0  0  0  0  0  0  0  0
    2.0830    0.2634  -11.9881 H   0  0  0  0  0  0  0  0  0  0  0  0
  1  2  1  0
  1  5  1  0
  2  3  1  0
  2  4  1  0
  2  8  1  0
  5  6  1  0
  5  7  1  0
  5 11  1  0
  8  9  1  0
  8 10  1  0
  8 17  1  0
 11 12  1  0
 11 13  1  0
 11 14  1  0
 14 15  1  0
 14 16  1  0
 14 23  1  0
 17 18  1  0
 17 19  1  0
 17 20  1  0
 20 21  1  0
 20 22  1  0
 20 26  1  0
 23 24  1  0
 23 25  1  0
 23 29  1  0
 26 27  1  0
 26 28  1  0
 26 36  1  0
 29 30  1  0
 29 31  1  0
 29 32  1  0
 32 33  1  0
 32 34  1  0
 32 35  1  0
 36 37  1  0
 36 38  1  0
 36 39  1  0
M  CHG  1   1   1
M  RAD  1   1   2
M  END
$$$$

     RDKit          3D

 39 38  0  0  0  0  0  0  0  0999 V2000
    0.7768    1.0181   -2.6064 S   0  0  0  0  0  2  0  0  0  0  0  0
    2.2243   -0.4986   -3.0745 Si  0  0  0  0  0  4  0  0  0  0  0  0
    1.8064   -1.8137   -2.5614 H   0  0  0  0  0  0  0  0  0  0  0  0
    3.5234   -0.1983   -2.4216 H   0  0  0  0  0  0  0  0  0  0  0  0
    1.6297    2.9611   -2.5737 Si  0  0  0  0  0  4  0  0  0  0  0  0
    2.2254    3.1724   -1.2277 H   0  0  0  0  0  0  0  0  0  0  0  0
    0.5205    3.9480   -2.6693 H   0  0  0  0  0  0  0  0  0  0  0  0
    2.4396   -0.5789   -5.2687 Si  0  0  0  0  0  4  0  0  0  0  0  0
    1.5692    0.3831   -5.9686 H   0  0  0  0  0  0  0  0  0  0  0  0
    3.8341   -0.1894   -5.6223 H   0  0  0  0  0  0  0  0  0  0  0  0
    3.1683    3.2720   -4.1193 Si  0  0  0  0  0  4  0  0  0  0  0  0
    3.6854    2.0314   -4.6920 H   0  0  0  0  0  0  0  0  0  0  0  0
    4.3358    3.9753   -3.5173 H   0  0  0  0  0  0  0  0  0  0  0  0
    2.4488    4.5508   -5.8001 Si  0  0  0  0  0  4  0  0  0  0  0  0
    1.8723    3.7364   -6.8858 H   0  0  0  0  0  0  0  0  0  0  0  0
    1.4522    5.5233   -5.3656 H   0  0  0  0  0  0  0  0  0  0  0  0
    2.0710   -2.5886   -6.1105 Si  0  0  0  0  0  4  0  0  0  0  0  0
    2.2807   -3.6360   -5.0885 H   0  0  0  0  0  0  0  0  0  0  0  0
    0.6439   -2.7017   -6.5246 H   0  0  0  0  0  0  0  0  0  0  0  0
    3.3889   -2.9464   -7.8824 Si  0  0  0  0  0  4  0  0  0  0  0  0
    4.2811   -4.0600   -7.6013 H   0  0  0  0  0  0  0  0  0  0  0  0
    2.5646   -3.1863   -9.0813 H   0  0  0  0  0  0  0  0  0  0  0  0
    4.2108    5.6430   -6.6533 Si  0  0  0  0  0  4  0  0  0  0  0  0
    3.7848    6.6557   -7.6379 H   0  0  0  0  0  0  0  0  0  0  0  0
    4.9115    6.2838   -5.5248 H   0  0  0  0  0  0  0  0  0  0  0  0
    4.5587   -1.0629   -8.2939 Si  0  0  0  0  0  4  0  0  0  0  0  0
    5.4322   -1.2146   -9.4358 H   0  0  0  0  0  0  0  0  0  0  0  0
    5.3442   -0.8024   -7.0544 H   0  0  0  0  0  0  0  0  0  0  0  0
    5.6119    4.2193   -7.6397 Si  0  0  0  0  0  4  0  0  0  0  0  0
    7.0001    4.6588   -7.4840 H   0  0  0  0  0  0  0  0  0  0  0  0
    5.4720    2.8863   -7.0298 H   0  0  0  0  0  0  0  0  0  0  0  0
    5.0976    4.0599   -9.8112 Si  0  0  0  0  0  4  0  0  0  0  0  0
    3.6216    4.0340   -9.9162 H   0  0  0  0  0  0  0  0  0  0  0  0
    5.6192    5.2092  -10.5727 H   0  0  0  0  0  0  0  0  0  0  0  0
    5.6069    2.7930  -10.3379 H   0  0  0  0  0  0  0  0  0  0  0  0
    3.0988    0.5974   -8.5056 Si  0  0  0  0  0  4  0  0  0  0  0  0
    3.2235    1.1665   -9.8539 H   0  0  0  0  0  0  0  0  0  0  0  0
    1.7024    0.1325   -8.3716 H   0  0  0  0  0  0  0  0  0  0  0  0
    3.3074    1.6535   -7.5083 H   0  0  0  0  0  0  0  0  0  0  0  0
  1  2  1  0
  1  5  1  0
  2  3  1  0
  2  4  1  0
  2  8  1  0
  5  6  1  0
  5  7  1  0
  5 11  1  0
  8  9  1  0
  8 10  1  0
  8 17  1  0
 11 12  1  0
 11 13  1  0
 11 14  1  0
 14 15  1  0
 14 16  1  0
 14 23  1  0
 17 18  1  0
 17 19  1  0
 17 20  1  0
 20 21  1  0
 20 22  1  0
 20 26  1  0
 23 24  1  0
 23 25  1  0
 23 29  1  0
 26 27  1  0
 26 28  1  0
 26 36  1  0
 29 30  1  0
 29 31  1  0
 29 32  1  0
 32 33  1  0
 32 34  1  0
 32 35  1  0
 36 37  1  0
 36 38  1  0
 36 39  1  0
M  CHG  1   1   1
M  RAD  1   1   2
M  END
$$$$

     RDKit          3D

 39 38  0  0  0  0  0  0  0  0999 V2000
    0.7768    1.0181   -2.6064 S   0  0  0  0  0  2  0  0  0  0  0  0
    0.9984    3.0299   -3.3492 Si  0  0  0  0  0  4  0  0  0  0  0  0
    1.6479    3.8379   -2.3108 H   0  0  0  0  0  0  0  0  0  0  0  0
   -0.3022    3.6378   -3.6329 H   0  0  0  0  0  0  0  0  0  0  0  0
    0.0434   -0.2863   -4.1241 Si  0  0  0  0  0  4  0  0  0  0  0  0
   -0.6037    0.5412   -5.1604 H   0  0  0  0  0  0  0  0  0  0  0  0
   -0.9458   -1.2191   -3.5362 H   0  0  0  0  0  0  0  0  0  0  0  0
    2.1713    2.9735   -5.2294 Si  0  0  0  0  0  4  0  0  0  0  0  0
    1.2460    3.0085   -6.3866 H   0  0  0  0  0  0  0  0  0  0  0  0
    2.9306    1.7038   -5.2820 H   0  0  0  0  0  0  0  0  0  0  0  0
    1.6804   -1.5387   -5.0010 Si  0  0  0  0  0  4  0  0  0  0  0  0
    2.9746   -0.8393   -4.9010 H   0  0  0  0  0  0  0  0  0  0  0  0
    1.7866   -2.8368   -4.3441 H   0  0  0  0  0  0  0  0  0  0  0  0
    1.2975   -1.8381   -7.2020 Si  0  0  0  0  0  4  0  0  0  0  0  0
    0.2081   -2.7912   -7.4200 H   0  0  0  0  0  0  0  0  0  0  0  0
    2.5509   -2.3308   -7.8034 H   0  0  0  0  0  0  0  0  0  0  0  0
    3.5427    4.7373   -5.4026 Si  0  0  0  0  0  4  0  0  0  0  0  0
    3.0313    5.6992   -6.4046 H   0  0  0  0  0  0  0  0  0  0  0  0
    3.7185    5.4073   -4.1298 H   0  0  0  0  0  0  0  0  0  0  0  0
    5.4971    3.9692   -6.2179 Si  0  0  0  0  0  4  0  0  0  0  0  0
    6.4114    5.0530   -6.5260 H   0  0  0  0  0  0  0  0  0  0  0  0
    6.0445    3.0589   -5.1908 H   0  0  0  0  0  0  0  0  0  0  0  0
    0.8219    0.1736   -8.0545 Si  0  0  0  0  0  4  0  0  0  0  0  0
    2.0365    1.0008   -7.9604 H   0  0  0  0  0  0  0  0  0  0  0  0
   -0.2028    0.7793   -7.1569 H   0  0  0  0  0  0  0  0  0  0  0  0
    4.9693    2.7781   -8.0549 Si  0  0  0  0  0  4  0  0  0  0  0  0
    3.8250    3.4395   -8.7045 H   0  0  0  0  0  0  0  0  0  0  0  0
    4.5484    1.4209   -7.6794 H   0  0  0  0  0  0  0  0  0  0  0  0
    0.0756    0.0365  -10.1344 Si  0  0  0  0  0  4  0  0  0  0  0  0
    1.1427    0.4339  -11.0755 H   0  0  0  0  0  0  0  0  0  0  0  0
   -0.3492   -1.3095  -10.5027 H   0  0  0  0  0  0  0  0  0  0  0  0
   -1.6097    1.5155  -10.3525 Si  0  0  0  0  0  4  0  0  0  0  0  0
   -1.1619    2.7529   -9.6668 H   0  0  0  0  0  0  0  0  0  0  0  0
   -1.9378    1.7520  -11.7457 H   0  0  0  0  0  0  0  0  0  0  0  0
   -2.7520    1.0090   -9.5672 H   0  0  0  0  0  0  0  0  0  0  0  0
    6.6765    2.6876   -9.4689 Si  0  0  0  0  0  4  0  0  0  0  0  0
    6.5344    1.5318  -10.3563 H   0  0  0  0  0  0  0  0  0  0  0  0
    6.7198    3.9586  -10.2112 H   0  0  0  0  0  0  0  0  0  0  0  0
    7.9096    2.5508   -8.6946 H   0  0  0  0  0  0  0  0  0  0  0  0
  1  2  1  0
  1  5  1  0
  2  3  1  0
  2  4  1  0
  2  8  1  0
  5  6  1  0
  5  7  1  0
  5 11  1  0
  8  9  1  0
  8 10  1  0
  8 17  1  0
 11 12  1  0
 11 13  1  0
 11 14  1  0
 14 15  1  0
 14 16  1  0
 14 23  1  0
 17 18  1  0
 17 19  1  0
 17 20  1  0
 20 21  1  0
 20 22  1  0
 20 26  1  0
 23 24  1  0
 23 25  1  0
 23 29  1  0
 26 27  1  0
 26 28  1  0
 26 36  1  0
 29 30  1  0
 29 31  1  0
 29 32  1  0
 32 33  1  0
 32 34  1  0
 32 35  1  0
 36 37  1  0
 36 38  1  0
 36 39  1  0
M  CHG  1   1   1
M  RAD  1   1   2
M  END
$$$$
