
     RDKit          3D

 39 38  0  0  0  0  0  0  0  0999 V2000
   -1.0068   -1.4438   -3.0211 S   0  0  0  0  0  2  0  0  0  0  0  0
   -0.2255   -0.2529   -4.6184 Si  0  0  0  0  0  4  0  0  0  0  0  0
    1.1006    0.2578   -4.2394 H   0  0  0  0  0  0  0  0  0  0  0  0
   -0.0475   -1.0485   -5.8374 H   0  0  0  0  0  0  0  0  0  0  0  0
   -2.2738   -3.0028   -3.8047 Si  0  0  0  0  0  4  0  0  0  0  0  0
   -3.0041   -3.6428   -2.7192 H   0  0  0  0  0  0  0  0  0  0  0  0
   -1.3829   -4.0045   -4.4239 H   0  0  0  0  0  0  0  0  0  0  0  0
   -1.5577    1.4752   -5.0773 Si  0  0  0  0  0  4  0  0  0  0  0  0
   -2.8543    1.2212   -4.4230 H   0  0  0  0  0  0  0  0  0  0  0  0
   -1.0088    2.7278   -4.5088 H   0  0  0  0  0  0  0  0  0  0  0  0
   -3.6574   -2.1825   -5.3662 Si  0  0  0  0  0  4  0  0  0  0  0  0
   -3.6079   -2.9935   -6.5973 H   0  0  0  0  0  0  0  0  0  0  0  0
   -3.1883   -0.8335   -5.6920 H   0  0  0  0  0  0  0  0  0  0  0  0
   -5.7384   -2.0058   -4.5846 Si  0  0  0  0  0  4  0  0  0  0  0  0
   -6.3020   -0.6733   -4.9043 H   0  0  0  0  0  0  0  0  0  0  0  0
   -5.7709   -2.2592   -3.1357 H   0  0  0  0  0  0  0  0  0  0  0  0
   -1.8076    1.6966   -7.2986 Si  0  0  0  0  0  4  0  0  0  0  0  0
   -0.6584    1.2037   -8.0285 H   0  0  0  0  0  0  0  0  0  0  0  0
   -3.0459    0.9671   -7.6525 H   0  0  0  0  0  0  0  0  0  0  0  0
   -2.2078    3.8653   -7.7019 Si  0  0  0  0  0  4  0  0  0  0  0  0
   -1.0904    4.7088   -7.2453 H   0  0  0  0  0  0  0  0  0  0  0  0
   -2.4542    4.0650   -9.1284 H   0  0  0  0  0  0  0  0  0  0  0  0
   -6.9938   -3.5347   -5.6200 Si  0  0  0  0  0  4  0  0  0  0  0  0
   -8.3310   -2.9956   -5.9481 H   0  0  0  0  0  0  0  0  0  0  0  0
   -7.1752   -4.7042   -4.7622 H   0  0  0  0  0  0  0  0  0  0  0  0
   -4.0429    4.3973   -6.5067 Si  0  0  0  0  0  4  0  0  0  0  0  0
   -3.8109    3.8998   -5.1440 H   0  0  0  0  0  0  0  0  0  0  0  0
   -4.2407    5.8356   -6.4714 H   0  0  0  0  0  0  0  0  0  0  0  0
   -6.0199   -4.1124   -7.5446 Si  0  0  0  0  0  4  0  0  0  0  0  0
   -6.8890   -5.0380   -8.2742 H   0  0  0  0  0  0  0  0  0  0  0  0
   -4.7008   -4.6807   -7.2777 H   0  0  0  0  0  0  0  0  0  0  0  0
   -5.7210   -2.2567   -8.7703 Si  0  0  0  0  0  4  0  0  0  0  0  0
   -4.6636   -2.4896   -9.7589 H   0  0  0  0  0  0  0  0  0  0  0  0
   -5.3852   -1.1588   -7.8650 H   0  0  0  0  0  0  0  0  0  0  0  0
   -6.9943   -1.9397   -9.4315 H   0  0  0  0  0  0  0  0  0  0  0  0
   -5.7738    3.2939   -7.3555 Si  0  0  0  0  0  4  0  0  0  0  0  0
   -5.3550    2.3620   -8.4274 H   0  0  0  0  0  0  0  0  0  0  0  0
   -6.4733    2.5176   -6.3143 H   0  0  0  0  0  0  0  0  0  0  0  0
   -6.7428    4.2276   -7.9414 H   0  0  0  0  0  0  0  0  0  0  0  0
  1  2  1  0
  1  5  1  0
  2  3  1  0
  2  4  1  0
  2  8  1  0
  5  6  1  0
  5  7  1  0
  5 11  1  0
  8  9  1  0
  8 10  1  0
  8 17  1  0
 11 12  1  0
 11 13  1  0
 11 14  1  0
 14 15  1  0
 14 16  1  0
 14 23  1  0
 17 18  1  0
 17 19  1  0
 17 20  1  0
 20 21  1  0
 20 22  1  0
 20 26  1  0
 23 24  1  0
 23 25  1  0
 23 29  1  0
 26 27  1  0
 26 28  1  0
 26 36  1  0
 29 30  1  0
 29 31  1  0
 29 32  1  0
 32 33  1  0
 32 34  1  0
 32 35  1  0
 36 37  1  0
 36 38  1  0
 36 39  1  0
M  CHG  1   1   1
M  RAD  1   1   2
M  END
$$$$

     RDKit          3D

 39 38  0  0  0  0  0  0  0  0999 V2000
   -1.0068   -1.4438   -3.0211 S   0  0  0  0  0  2  0  0  0  0  0  0
   -2.0216   -0.3593   -4.5745 Si  0  0  0  0  0  4  0  0  0  0  0  0
   -2.5790    0.9061   -4.0548 H   0  0  0  0  0  0  0  0  0  0  0  0
   -1.0002    0.0171   -5.5765 H   0  0  0  0  0  0  0  0  0  0  0  0
    0.8370   -2.2723   -3.8055 Si  0  0  0  0  0  4  0  0  0  0  0  0
    0.9616   -3.6272   -3.2396 H   0  0  0  0  0  0  0  0  0  0  0  0
    1.9756   -1.4257   -3.4896 H   0  0  0  0  0  0  0  0  0  0  0  0
   -3.6709   -1.5264   -5.4671 Si  0  0  0  0  0  4  0  0  0  0  0  0
   -4.9790   -0.9206   -5.1742 H   0  0  0  0  0  0  0  0  0  0  0  0
   -3.6791   -2.8856   -4.9174 H   0  0  0  0  0  0  0  0  0  0  0  0
    0.5559   -2.4687   -6.0214 Si  0  0  0  0  0  4  0  0  0  0  0  0
    0.6140   -1.1957   -6.7007 H   0  0  0  0  0  0  0  0  0  0  0  0
   -0.8436   -2.9655   -6.1897 H   0  0  0  0  0  0  0  0  0  0  0  0
    1.8803   -4.0154   -6.8845 Si  0  0  0  0  0  4  0  0  0  0  0  0
    1.7816   -5.1975   -5.9756 H   0  0  0  0  0  0  0  0  0  0  0  0
    1.2270   -4.4787   -8.1456 H   0  0  0  0  0  0  0  0  0  0  0  0
   -3.4922   -1.6864   -7.6859 Si  0  0  0  0  0  4  0  0  0  0  0  0
   -4.6330   -2.5059   -8.1539 H   0  0  0  0  0  0  0  0  0  0  0  0
   -2.2708   -2.4142   -8.0737 H   0  0  0  0  0  0  0  0  0  0  0  0
   -3.4748    0.2902   -8.6715 Si  0  0  0  0  0  4  0  0  0  0  0  0
   -4.2817    1.2919   -7.9876 H   0  0  0  0  0  0  0  0  0  0  0  0
   -4.0291    0.1174  -10.0444 H   0  0  0  0  0  0  0  0  0  0  0  0
    3.9349   -3.4407   -7.2335 Si  0  0  0  0  0  4  0  0  0  0  0  0
    4.2868   -3.6460   -8.6692 H   0  0  0  0  0  0  0  0  0  0  0  0
    4.8448   -4.3864   -6.5153 H   0  0  0  0  0  0  0  0  0  0  0  0
   -1.3818    1.0635   -8.9472 Si  0  0  0  0  0  4  0  0  0  0  0  0
   -0.6552    1.1149   -7.6909 H   0  0  0  0  0  0  0  0  0  0  0  0
   -1.4827    2.4363   -9.4756 H   0  0  0  0  0  0  0  0  0  0  0  0
    4.5488   -1.4196   -6.6505 Si  0  0  0  0  0  4  0  0  0  0  0  0
    5.7602   -1.0470   -7.4413 H   0  0  0  0  0  0  0  0  0  0  0  0
    5.0028   -1.4045   -5.2364 H   0  0  0  0  0  0  0  0  0  0  0  0
    3.0603    0.1573   -6.9333 Si  0  0  0  0  0  4  0  0  0  0  0  0
    2.2580    0.2960   -5.6850 H   0  0  0  0  0  0  0  0  0  0  0  0
    3.7644    1.4622   -7.0831 H   0  0  0  0  0  0  0  0  0  0  0  0
    2.2083   -0.0021   -8.0999 H   0  0  0  0  0  0  0  0  0  0  0  0
   -0.2495   -0.2509  -10.3538 Si  0  0  0  0  0  4  0  0  0  0  0  0
   -1.1249   -0.8337  -11.3532 H   0  0  0  0  0  0  0  0  0  0  0  0
    0.8375    0.5521  -10.9267 H   0  0  0  0  0  0  0  0  0  0  0  0
    0.4074   -1.3407   -9.5798 H   0  0  0  0  0  0  0  0  0  0  0  0
  1  2  1  0
  1  5  1  0
  2  3  1  0
  2  4  1  0
  2  8  1  0
  5  6  1  0
  5  7  1  0
  5 11  1  0
  8  9  1  0
  8 10  1  0
  8 17  1  0
 11 12  1  0
 11 13  1  0
 11 14  1  0
 14 15  1  0
 14 16  1  0
 14 23  1  0
 17 18  1  0
 17 19  1  0
 17 20  1  0
 20 21  1  0
 20 22  1  0
 20 26  1  0
 23 24  1  0
 23 25  1  0
 23 29  1  0
 26 27  1  0
 26 28  1  0
 26 36  1  0
 29 30  1  0
 29 31  1  0
 29 32  1  0
 32 33  1  0
 32 34  1  0
 32 35  1  0
 36 37  1  0
 36 38  1  0
 36 39  1  0
M  CHG  1   1   1
M  RAD  1   1   2
M  END
$$$$

     RDKit          3D

 39 38  0  0  0  0  0  0  0  0999 V2000
   -1.0068   -1.4438   -3.0211 S   0  0  0  0  0  2  0  0  0  0  0  0
   -1.2468   -0.2218   -4.7728 Si  0  0  0  0  0  4  0  0  0  0  0  0
   -1.3689    1.2040   -4.4069 H   0  0  0  0  0  0  0  0  0  0  0  0
    0.0008   -0.3437   -5.5586 H   0  0  0  0  0  0  0  0  0  0  0  0
    0.4965   -2.9599   -3.3992 Si  0  0  0  0  0  4  0  0  0  0  0  0
   -0.0005   -4.2046   -2.7864 H   0  0  0  0  0  0  0  0  0  0  0  0
    1.7948   -2.5600   -2.8825 H   0  0  0  0  0  0  0  0  0  0  0  0
   -3.0285   -0.7890   -5.9488 Si  0  0  0  0  0  4  0  0  0  0  0  0
   -4.0416    0.2775   -5.9392 H   0  0  0  0  0  0  0  0  0  0  0  0
   -3.6450   -1.9908   -5.3784 H   0  0  0  0  0  0  0  0  0  0  0  0
    0.5583   -3.2565   -5.6209 Si  0  0  0  0  0  4  0  0  0  0  0  0
    1.2106   -2.1654   -6.3060 H   0  0  0  0  0  0  0  0  0  0  0  0
   -0.8718   -3.2230   -6.0540 H   0  0  0  0  0  0  0  0  0  0  0  0
    1.3326   -5.2561   -6.1624 Si  0  0  0  0  0  4  0  0  0  0  0  0
    0.6371   -6.2257   -5.2627 H   0  0  0  0  0  0  0  0  0  0  0  0
    0.7868   -5.5706   -7.5170 H   0  0  0  0  0  0  0  0  0  0  0  0
   -2.5343   -1.2197   -8.0821 Si  0  0  0  0  0  4  0  0  0  0  0  0
   -3.7976   -1.6087   -8.7488 H   0  0  0  0  0  0  0  0  0  0  0  0
   -1.6292   -2.3769   -8.1990 H   0  0  0  0  0  0  0  0  0  0  0  0
   -1.6000    0.5078   -9.0927 Si  0  0  0  0  0  4  0  0  0  0  0  0
   -2.0772    1.7965   -8.6095 H   0  0  0  0  0  0  0  0  0  0  0  0
   -1.9266    0.4152  -10.5442 H   0  0  0  0  0  0  0  0  0  0  0  0
    3.4791   -5.5070   -6.1065 Si  0  0  0  0  0  4  0  0  0  0  0  0
    3.9754   -5.9661   -7.4369 H   0  0  0  0  0  0  0  0  0  0  0  0
    3.8235   -6.6440   -5.1972 H   0  0  0  0  0  0  0  0  0  0  0  0
    0.6433    0.4340   -8.9623 Si  0  0  0  0  0  4  0  0  0  0  0  0
    1.1015    0.3399   -7.5874 H   0  0  0  0  0  0  0  0  0  0  0  0
    1.1619    1.6903   -9.5339 H   0  0  0  0  0  0  0  0  0  0  0  0
    4.6956   -3.8020   -5.4624 Si  0  0  0  0  0  4  0  0  0  0  0  0
    6.0772   -3.9760   -6.0032 H   0  0  0  0  0  0  0  0  0  0  0  0
    4.8643   -3.8148   -3.9868 H   0  0  0  0  0  0  0  0  0  0  0  0
    3.9858   -1.8269   -6.0768 Si  0  0  0  0  0  4  0  0  0  0  0  0
    3.0880   -1.2837   -5.0186 H   0  0  0  0  0  0  0  0  0  0  0  0
    5.1440   -0.8898   -6.1147 H   0  0  0  0  0  0  0  0  0  0  0  0
    3.3571   -1.7783   -7.3862 H   0  0  0  0  0  0  0  0  0  0  0  0
    1.4265   -1.3338  -10.0803 Si  0  0  0  0  0  4  0  0  0  0  0  0
    0.5875   -1.6524  -11.2202 H   0  0  0  0  0  0  0  0  0  0  0  0
    2.8186   -1.0425  -10.4433 H   0  0  0  0  0  0  0  0  0  0  0  0
    1.4767   -2.5066   -9.1635 H   0  0  0  0  0  0  0  0  0  0  0  0
  1  2  1  0
  1  5  1  0
  2  3  1  0
  2  4  1  0
  2  8  1  0
  5  6  1  0
  5  7  1  0
  5 11  1  0
  8  9  1  0
  8 10  1  0
  8 17  1  0
 11 12  1  0
 11 13  1  0
 11 14  1  0
 14 15  1  0
 14 16  1  0
 14 23  1  0
 17 18  1  0
 17 19  1  0
 17 20  1  0
 20 21  1  0
 20 22  1  0
 20 26  1  0
 23 24  1  0
 23 25  1  0
 23 29  1  0
 26 27  1  0
 26 28  1  0
 26 36  1  0
 29 30  1  0
 29 31  1  0
 29 32  1  0
 32 33  1  0
 32 34  1  0
 32 35  1  0
 36 37  1  0
 36 38  1  0
 36 39  1  0
M  CHG  1   1   1
M  RAD  1   1   2
M  END
$$$$
