
     RDKit          3D

 39 38  0  0  0  0  0  0  0  0999 V2000
   -0.0027    0.0006    3.1879 S   0  0  0  0  0  2  0  0  0  0  0  0
   -2.0046    0.6153    3.5356 Si  0  0  0  0  0  4  0  0  0  0  0  0
   -2.9343   -0.4430    3.1218 H   0  0  0  0  0  0  0  0  0  0  0  0
   -2.2816    1.7764    2.6459 H   0  0  0  0  0  0  0  0  0  0  0  0
    0.4215   -1.9432    3.9118 Si  0  0  0  0  0  4  0  0  0  0  0  0
   -0.7713   -2.8057    3.6977 H   0  0  0  0  0  0  0  0  0  0  0  0
    1.5255   -2.5136    3.1416 H   0  0  0  0  0  0  0  0  0  0  0  0
   -2.3653    1.2625    5.6178 Si  0  0  0  0  0  4  0  0  0  0  0  0
   -1.9537    2.6897    5.7331 H   0  0  0  0  0  0  0  0  0  0  0  0
   -1.6050    0.5222    6.6053 H   0  0  0  0  0  0  0  0  0  0  0  0
    0.9379   -1.9948    6.0553 Si  0  0  0  0  0  4  0  0  0  0  0  0
   -0.0181   -1.2555    6.8912 H   0  0  0  0  0  0  0  0  0  0  0  0
    0.8903   -3.4002    6.5024 H   0  0  0  0  0  0  0  0  0  0  0  0
    2.9706   -1.2272    6.4773 Si  0  0  0  0  0  4  0  0  0  0  0  0
    3.9487   -2.1547    5.8746 H   0  0  0  0  0  0  0  0  0  0  0  0
    3.1763   -1.2389    7.9315 H   0  0  0  0  0  0  0  0  0  0  0  0
   -4.5276    1.1365    6.1757 Si  0  0  0  0  0  4  0  0  0  0  0  0
   -4.7106    1.9778    7.3759 H   0  0  0  0  0  0  0  0  0  0  0  0
   -5.3663    1.6494    5.1031 H   0  0  0  0  0  0  0  0  0  0  0  0
   -4.9837   -0.9840    6.6761 Si  0  0  0  0  0  4  0  0  0  0  0  0
   -6.3500   -1.2695    6.2262 H   0  0  0  0  0  0  0  0  0  0  0  0
   -4.0740   -1.8411    5.8930 H   0  0  0  0  0  0  0  0  0  0  0  0
    3.3433    0.7946    5.7087 Si  0  0  0  0  0  4  0  0  0  0  0  0
    4.5749    1.3066    6.3757 H   0  0  0  0  0  0  0  0  0  0  0  0
    3.6689    0.7877    4.2538 H   0  0  0  0  0  0  0  0  0  0  0  0
   -4.7356   -1.4043    8.8385 Si  0  0  0  0  0  4  0  0  0  0  0  0
   -3.8981   -2.6174    9.0130 H   0  0  0  0  0  0  0  0  0  0  0  0
   -4.1343   -0.2817    9.5648 H   0  0  0  0  0  0  0  0  0  0  0  0
    1.7192    2.2290    6.1189 Si  0  0  0  0  0  4  0  0  0  0  0  0
    0.7195    2.2680    5.0148 H   0  0  0  0  0  0  0  0  0  0  0  0
    1.0498    1.9348    7.3928 H   0  0  0  0  0  0  0  0  0  0  0  0
    2.6040    4.3048    6.1730 Si  0  0  0  0  0  4  0  0  0  0  0  0
    3.1853    4.6005    7.4675 H   0  0  0  0  0  0  0  0  0  0  0  0
    1.5170    5.2745    5.8605 H   0  0  0  0  0  0  0  0  0  0  0  0
    3.5726    4.4277    5.0635 H   0  0  0  0  0  0  0  0  0  0  0  0
   -6.7525   -1.9122    9.6967 Si  0  0  0  0  0  4  0  0  0  0  0  0
   -6.6345   -2.7541   10.8793 H   0  0  0  0  0  0  0  0  0  0  0  0
   -7.4965   -2.6106    8.6199 H   0  0  0  0  0  0  0  0  0  0  0  0
   -7.4531   -0.6757   10.0300 H   0  0  0  0  0  0  0  0  0  0  0  0
  1  2  1  0
  1  5  1  0
  2  3  1  0
  2  4  1  0
  2  8  1  0
  5  6  1  0
  5  7  1  0
  5 11  1  0
  8  9  1  0
  8 10  1  0
  8 17  1  0
 11 12  1  0
 11 13  1  0
 11 14  1  0
 14 15  1  0
 14 16  1  0
 14 23  1  0
 17 18  1  0
 17 19  1  0
 17 20  1  0
 20 21  1  0
 20 22  1  0
 20 26  1  0
 23 24  1  0
 23 25  1  0
 23 29  1  0
 26 27  1  0
 26 28  1  0
 26 36  1  0
 29 30  1  0
 29 31  1  0
 29 32  1  0
 32 33  1  0
 32 34  1  0
 32 35  1  0
 36 37  1  0
 36 38  1  0
 36 39  1  0
M  CHG  1   1   1
M  RAD  1   1   2
M  END
$$$$

     RDKit          3D

 39 38  0  0  0  0  0  0  0  0999 V2000
   -0.0027    0.0006    3.1879 S   0  0  0  0  0  2  0  0  0  0  0  0
    1.1950    0.2386    4.9076 Si  0  0  0  0  0  4  0  0  0  0  0  0
    2.5551   -0.2216    4.5564 H   0  0  0  0  0  0  0  0  0  0  0  0
    0.7707   -0.6480    6.0256 H   0  0  0  0  0  0  0  0  0  0  0  0
   -2.0185    0.5841    3.4129 Si  0  0  0  0  0  4  0  0  0  0  0  0
   -2.1541    1.9696    3.9364 H   0  0  0  0  0  0  0  0  0  0  0  0
   -2.6135    0.6462    2.0436 H   0  0  0  0  0  0  0  0  0  0  0  0
    1.3883    2.3396    5.5746 Si  0  0  0  0  0  4  0  0  0  0  0  0
    1.4610    3.1899    4.3513 H   0  0  0  0  0  0  0  0  0  0  0  0
    2.6520    2.5387    6.2806 H   0  0  0  0  0  0  0  0  0  0  0  0
   -3.2365   -0.8590    4.5669 Si  0  0  0  0  0  4  0  0  0  0  0  0
   -4.4416   -0.1783    5.1156 H   0  0  0  0  0  0  0  0  0  0  0  0
   -3.7112   -1.9753    3.7443 H   0  0  0  0  0  0  0  0  0  0  0  0
   -2.1207   -1.6750    6.3271 Si  0  0  0  0  0  4  0  0  0  0  0  0
   -1.1231   -2.6517    5.9296 H   0  0  0  0  0  0  0  0  0  0  0  0
   -1.4731   -0.5311    6.9761 H   0  0  0  0  0  0  0  0  0  0  0  0
   -0.3011    3.0494    6.7884 Si  0  0  0  0  0  4  0  0  0  0  0  0
   -1.5767    2.6824    6.1542 H   0  0  0  0  0  0  0  0  0  0  0  0
   -0.2662    4.5408    6.7918 H   0  0  0  0  0  0  0  0  0  0  0  0
   -0.3270    2.3434    8.8582 Si  0  0  0  0  0  4  0  0  0  0  0  0
   -0.8628    0.9641    8.9985 H   0  0  0  0  0  0  0  0  0  0  0  0
   -1.2625    3.2017    9.6208 H   0  0  0  0  0  0  0  0  0  0  0  0
   -3.5564   -2.5307    7.8290 Si  0  0  0  0  0  4  0  0  0  0  0  0
   -4.6585   -3.2219    7.1719 H   0  0  0  0  0  0  0  0  0  0  0  0
   -2.8011   -3.4862    8.6529 H   0  0  0  0  0  0  0  0  0  0  0  0
    1.6252    2.4264    9.8892 Si  0  0  0  0  0  4  0  0  0  0  0  0
    1.9372    3.8473   10.1676 H   0  0  0  0  0  0  0  0  0  0  0  0
    1.4816    1.7727   11.2001 H   0  0  0  0  0  0  0  0  0  0  0  0
   -4.3212   -0.9007    9.1715 Si  0  0  0  0  0  4  0  0  0  0  0  0
   -3.3357   -0.5204   10.1684 H   0  0  0  0  0  0  0  0  0  0  0  0
   -5.5150   -1.3953    9.8456 H   0  0  0  0  0  0  0  0  0  0  0  0
   -4.8368    0.9085    7.9625 Si  0  0  0  0  0  4  0  0  0  0  0  0
   -5.9755    0.6206    7.0894 H   0  0  0  0  0  0  0  0  0  0  0  0
   -5.1541    1.9963    8.8775 H   0  0  0  0  0  0  0  0  0  0  0  0
   -3.6402    1.3275    7.1867 H   0  0  0  0  0  0  0  0  0  0  0  0
    3.2516    1.4256    8.7843 Si  0  0  0  0  0  4  0  0  0  0  0  0
    4.1159    2.4729    8.1811 H   0  0  0  0  0  0  0  0  0  0  0  0
    4.1292    0.6905    9.7304 H   0  0  0  0  0  0  0  0  0  0  0  0
    2.7826    0.4656    7.7916 H   0  0  0  0  0  0  0  0  0  0  0  0
  1  2  1  0
  1  5  1  0
  2  3  1  0
  2  4  1  0
  2  8  1  0
  5  6  1  0
  5  7  1  0
  5 11  1  0
  8  9  1  0
  8 10  1  0
  8 17  1  0
 11 12  1  0
 11 13  1  0
 11 14  1  0
 14 15  1  0
 14 16  1  0
 14 23  1  0
 17 18  1  0
 17 19  1  0
 17 20  1  0
 20 21  1  0
 20 22  1  0
 20 26  1  0
 23 24  1  0
 23 25  1  0
 23 29  1  0
 26 27  1  0
 26 28  1  0
 26 36  1  0
 29 30  1  0
 29 31  1  0
 29 32  1  0
 32 33  1  0
 32 34  1  0
 32 35  1  0
 36 37  1  0
 36 38  1  0
 36 39  1  0
M  CHG  1   1   1
M  RAD  1   1   2
M  END
$$$$

     RDKit          3D

 39 38  0  0  0  0  0  0  0  0999 V2000
   -0.0027    0.0006    3.1879 S   0  0  0  0  0  2  0  0  0  0  0  0
   -1.1347   -0.4106    4.9193 Si  0  0  0  0  0  4  0  0  0  0  0  0
   -2.5516   -0.1602    4.5812 H   0  0  0  0  0  0  0  0  0  0  0  0
   -0.8374    0.5319    6.0326 H   0  0  0  0  0  0  0  0  0  0  0  0
    2.0799   -0.2736    3.3935 Si  0  0  0  0  0  4  0  0  0  0  0  0
    2.4266   -1.6220    3.9166 H   0  0  0  0  0  0  0  0  0  0  0  0
    2.6643   -0.2486    2.0186 H   0  0  0  0  0  0  0  0  0  0  0  0
   -1.0044   -2.5155    5.5895 Si  0  0  0  0  0  4  0  0  0  0  0  0
   -0.9606   -3.3696    4.3675 H   0  0  0  0  0  0  0  0  0  0  0  0
   -2.2172   -2.9003    6.3079 H   0  0  0  0  0  0  0  0  0  0  0  0
    3.0787    1.3382    4.5347 Si  0  0  0  0  0  4  0  0  0  0  0  0
    4.3775    0.8469    5.0721 H   0  0  0  0  0  0  0  0  0  0  0  0
    3.3728    2.5113    3.7069 H   0  0  0  0  0  0  0  0  0  0  0  0
    1.8701    1.9813    6.3052 Si  0  0  0  0  0  4  0  0  0  0  0  0
    0.7336    2.7966    5.9169 H   0  0  0  0  0  0  0  0  0  0  0  0
    1.4076    0.7546    6.9612 H   0  0  0  0  0  0  0  0  0  0  0  0
    0.7838   -2.9615    6.7871 Si  0  0  0  0  0  4  0  0  0  0  0  0
    1.9839   -2.4088    6.1403 H   0  0  0  0  0  0  0  0  0  0  0  0
    0.9730   -4.4413    6.7918 H   0  0  0  0  0  0  0  0  0  0  0  0
    0.7234   -2.2553    8.8562 Si  0  0  0  0  0  4  0  0  0  0  0  0
    1.0476   -0.8110    8.9904 H   0  0  0  0  0  0  0  0  0  0  0  0
    1.7842   -2.9621    9.6101 H   0  0  0  0  0  0  0  0  0  0  0  0
    3.1757    3.0456    7.7926 Si  0  0  0  0  0  4  0  0  0  0  0  0
    4.1553    3.8929    7.1243 H   0  0  0  0  0  0  0  0  0  0  0  0
    2.2935    3.8788    8.6232 H   0  0  0  0  0  0  0  0  0  0  0  0
   -1.1844   -2.6279    9.9063 Si  0  0  0  0  0  4  0  0  0  0  0  0
   -1.2772   -4.0789   10.1886 H   0  0  0  0  0  0  0  0  0  0  0  0
   -1.1279   -1.9573   11.2153 H   0  0  0  0  0  0  0  0  0  0  0  0
    4.1890    1.5515    9.1285 Si  0  0  0  0  0  4  0  0  0  0  0  0
    3.2811    1.0297   10.1352 H   0  0  0  0  0  0  0  0  0  0  0  0
    5.3015    2.2208    9.7906 H   0  0  0  0  0  0  0  0  0  0  0  0
    4.9584   -0.1625    7.9156 Si  0  0  0  0  0  4  0  0  0  0  0  0
    6.0326    0.2911    7.0313 H   0  0  0  0  0  0  0  0  0  0  0  0
    5.4438   -1.1886    8.8281 H   0  0  0  0  0  0  0  0  0  0  0  0
    3.8307   -0.7578    7.1518 H   0  0  0  0  0  0  0  0  0  0  0  0
   -2.9529   -1.8845    8.8167 Si  0  0  0  0  0  4  0  0  0  0  0  0
   -3.6562   -3.0507    8.2226 H   0  0  0  0  0  0  0  0  0  0  0  0
   -3.9217   -1.2873    9.7709 H   0  0  0  0  0  0  0  0  0  0  0  0
   -2.6426   -0.8671    7.8189 H   0  0  0  0  0  0  0  0  0  0  0  0
  1  2  1  0
  1  5  1  0
  2  3  1  0
  2  4  1  0
  2  8  1  0
  5  6  1  0
  5  7  1  0
  5 11  1  0
  8  9  1  0
  8 10  1  0
  8 17  1  0
 11 12  1  0
 11 13  1  0
 11 14  1  0
 14 15  1  0
 14 16  1  0
 14 23  1  0
 17 18  1  0
 17 19  1  0
 17 20  1  0
 20 21  1  0
 20 22  1  0
 20 26  1  0
 23 24  1  0
 23 25  1  0
 23 29  1  0
 26 27  1  0
 26 28  1  0
 26 36  1  0
 29 30  1  0
 29 31  1  0
 29 32  1  0
 32 33  1  0
 32 34  1  0
 32 35  1  0
 36 37  1  0
 36 38  1  0
 36 39  1  0
M  CHG  1   1   1
M  RAD  1   1   2
M  END
$$$$

     RDKit          3D

 39 38  0  0  0  0  0  0  0  0999 V2000
   -0.0027    0.0006    3.1879 S   0  0  0  0  0  2  0  0  0  0  0  0
   -0.8888   -1.4448    4.5293 Si  0  0  0  0  0  4  0  0  0  0  0  0
    0.0007   -2.5619    4.7852 H   0  0  0  0  0  0  0  0  0  0  0  0
   -2.1039   -1.9536    3.8395 H   0  0  0  0  0  0  0  0  0  0  0  0
    2.0756    0.3177    3.7172 Si  0  0  0  0  0  4  0  0  0  0  0  0
    2.8436   -0.7101    3.0027 H   0  0  0  0  0  0  0  0  0  0  0  0
    2.4911    1.6724    3.4039 H   0  0  0  0  0  0  0  0  0  0  0  0
   -1.5366   -0.3931    6.3598 Si  0  0  0  0  0  4  0  0  0  0  0  0
   -2.8757    0.2062    6.1003 H   0  0  0  0  0  0  0  0  0  0  0  0
   -0.6238    0.7532    6.5819 H   0  0  0  0  0  0  0  0  0  0  0  0
    2.2572   -0.1360    5.9062 Si  0  0  0  0  0  4  0  0  0  0  0  0
    1.8102    0.9961    6.7271 H   0  0  0  0  0  0  0  0  0  0  0  0
    1.3584   -1.2557    6.1764 H   0  0  0  0  0  0  0  0  0  0  0  0
    4.3207   -0.7488    6.4429 Si  0  0  0  0  0  4  0  0  0  0  0  0
    5.1549   -0.6549    5.2399 H   0  0  0  0  0  0  0  0  0  0  0  0
    4.3548   -2.1515    6.9409 H   0  0  0  0  0  0  0  0  0  0  0  0
   -1.6855   -1.7145    8.1212 Si  0  0  0  0  0  4  0  0  0  0  0  0
   -1.3458   -0.9059    9.3267 H   0  0  0  0  0  0  0  0  0  0  0  0
   -3.0467   -2.2082    8.3259 H   0  0  0  0  0  0  0  0  0  0  0  0
   -0.2808   -3.4227    8.0486 Si  0  0  0  0  0  4  0  0  0  0  0  0
    0.8683   -3.2293    8.9737 H   0  0  0  0  0  0  0  0  0  0  0  0
    0.3240   -3.4479    6.6859 H   0  0  0  0  0  0  0  0  0  0  0  0
    5.0568    0.5510    8.0846 Si  0  0  0  0  0  4  0  0  0  0  0  0
    6.2019    1.3214    7.5736 H   0  0  0  0  0  0  0  0  0  0  0  0
    4.0152    1.5213    8.4998 H   0  0  0  0  0  0  0  0  0  0  0  0
   -1.2511   -5.3596    8.4857 Si  0  0  0  0  0  4  0  0  0  0  0  0
   -2.4879   -5.1458    9.2209 H   0  0  0  0  0  0  0  0  0  0  0  0
   -0.3003   -6.2252    9.2055 H   0  0  0  0  0  0  0  0  0  0  0  0
    5.6833   -0.5885    9.8672 Si  0  0  0  0  0  4  0  0  0  0  0  0
    6.8736    0.0817   10.4637 H   0  0  0  0  0  0  0  0  0  0  0  0
    6.0425   -1.9661    9.5964 H   0  0  0  0  0  0  0  0  0  0  0  0
    4.0965   -0.5591   11.4537 Si  0  0  0  0  0  4  0  0  0  0  0  0
    4.4328   -1.5445   12.4959 H   0  0  0  0  0  0  0  0  0  0  0  0
    3.9163    0.7814   12.0105 H   0  0  0  0  0  0  0  0  0  0  0  0
    2.8173   -0.9788   10.8502 H   0  0  0  0  0  0  0  0  0  0  0  0
   -1.7659   -6.3187    6.5131 Si  0  0  0  0  0  4  0  0  0  0  0  0
   -2.3567   -7.6268    6.7150 H   0  0  0  0  0  0  0  0  0  0  0  0
   -2.6759   -5.3750    5.8262 H   0  0  0  0  0  0  0  0  0  0  0  0
   -0.5138   -6.3673    5.7396 H   0  0  0  0  0  0  0  0  0  0  0  0
  1  2  1  0
  1  5  1  0
  2  3  1  0
  2  4  1  0
  2  8  1  0
  5  6  1  0
  5  7  1  0
  5 11  1  0
  8  9  1  0
  8 10  1  0
  8 17  1  0
 11 12  1  0
 11 13  1  0
 11 14  1  0
 14 15  1  0
 14 16  1  0
 14 23  1  0
 17 18  1  0
 17 19  1  0
 17 20  1  0
 20 21  1  0
 20 22  1  0
 20 26  1  0
 23 24  1  0
 23 25  1  0
 23 29  1  0
 26 27  1  0
 26 28  1  0
 26 36  1  0
 29 30  1  0
 29 31  1  0
 29 32  1  0
 32 33  1  0
 32 34  1  0
 32 35  1  0
 36 37  1  0
 36 38  1  0
 36 39  1  0
M  CHG  1   1   1
M  RAD  1   1   2
M  END
$$$$

     RDKit          3D

 39 38  0  0  0  0  0  0  0  0999 V2000
   -0.0027    0.0006    3.1879 S   0  0  0  0  0  2  0  0  0  0  0  0
    1.2091   -1.4609    4.1109 Si  0  0  0  0  0  4  0  0  0  0  0  0
    1.3538   -2.6937    3.3225 H   0  0  0  0  0  0  0  0  0  0  0  0
    2.5781   -0.9010    4.2573 H   0  0  0  0  0  0  0  0  0  0  0  0
   -2.0707   -0.4323    3.2358 Si  0  0  0  0  0  4  0  0  0  0  0  0
   -2.4040   -1.7834    2.7774 H   0  0  0  0  0  0  0  0  0  0  0  0
   -2.7589    0.5022    2.2994 H   0  0  0  0  0  0  0  0  0  0  0  0
    0.5211   -2.0014    6.1597 Si  0  0  0  0  0  4  0  0  0  0  0  0
    1.2130   -3.2730    6.5183 H   0  0  0  0  0  0  0  0  0  0  0  0
   -0.9071   -2.2699    6.2229 H   0  0  0  0  0  0  0  0  0  0  0  0
   -2.9099   -0.0129    5.2679 Si  0  0  0  0  0  4  0  0  0  0  0  0
   -1.8368   -0.0561    6.2558 H   0  0  0  0  0  0  0  0  0  0  0  0
   -3.4732    1.3640    5.3152 H   0  0  0  0  0  0  0  0  0  0  0  0
   -4.5287   -1.4730    5.6782 Si  0  0  0  0  0  4  0  0  0  0  0  0
   -4.7718   -2.3531    4.5145 H   0  0  0  0  0  0  0  0  0  0  0  0
   -5.8041   -0.7637    5.9328 H   0  0  0  0  0  0  0  0  0  0  0  0
    1.1643   -0.4667    7.6512 Si  0  0  0  0  0  4  0  0  0  0  0  0
    2.2895   -0.9521    8.4722 H   0  0  0  0  0  0  0  0  0  0  0  0
    0.0783   -0.1284    8.5861 H   0  0  0  0  0  0  0  0  0  0  0  0
    1.8903    1.3909    6.6125 Si  0  0  0  0  0  4  0  0  0  0  0  0
    2.5495    1.0765    5.3515 H   0  0  0  0  0  0  0  0  0  0  0  0
    2.8838    2.0629    7.4714 H   0  0  0  0  0  0  0  0  0  0  0  0
   -4.0110   -2.7364    7.4454 Si  0  0  0  0  0  4  0  0  0  0  0  0
   -2.9660   -2.0246    8.2125 H   0  0  0  0  0  0  0  0  0  0  0  0
   -5.1711   -2.8867    8.3399 H   0  0  0  0  0  0  0  0  0  0  0  0
    0.1855    2.7684    6.1738 Si  0  0  0  0  0  4  0  0  0  0  0  0
   -0.5484    2.3394    4.9873 H   0  0  0  0  0  0  0  0  0  0  0  0
    0.7583    4.0932    5.8890 H   0  0  0  0  0  0  0  0  0  0  0  0
   -3.2676   -4.7361    6.8430 Si  0  0  0  0  0  4  0  0  0  0  0  0
   -4.2458   -5.7691    7.2453 H   0  0  0  0  0  0  0  0  0  0  0  0
   -2.0168   -5.0460    7.5623 H   0  0  0  0  0  0  0  0  0  0  0  0
   -2.8516   -4.8648    4.6678 Si  0  0  0  0  0  4  0  0  0  0  0  0
   -3.5278   -6.0446    4.1076 H   0  0  0  0  0  0  0  0  0  0  0  0
   -1.4065   -5.0309    4.3904 H   0  0  0  0  0  0  0  0  0  0  0  0
   -3.3273   -3.6974    3.9325 H   0  0  0  0  0  0  0  0  0  0  0  0
   -1.2082    2.8707    7.9214 Si  0  0  0  0  0  4  0  0  0  0  0  0
   -1.1119    1.5951    8.6527 H   0  0  0  0  0  0  0  0  0  0  0  0
   -2.5568    3.1027    7.4098 H   0  0  0  0  0  0  0  0  0  0  0  0
   -0.7935    4.0091    8.7561 H   0  0  0  0  0  0  0  0  0  0  0  0
  1  2  1  0
  1  5  1  0
  2  3  1  0
  2  4  1  0
  2  8  1  0
  5  6  1  0
  5  7  1  0
  5 11  1  0
  8  9  1  0
  8 10  1  0
  8 17  1  0
 11 12  1  0
 11 13  1  0
 11 14  1  0
 14 15  1  0
 14 16  1  0
 14 23  1  0
 17 18  1  0
 17 19  1  0
 17 20  1  0
 20 21  1  0
 20 22  1  0
 20 26  1  0
 23 24  1  0
 23 25  1  0
 23 29  1  0
 26 27  1  0
 26 28  1  0
 26 36  1  0
 29 30  1  0
 29 31  1  0
 29 32  1  0
 32 33  1  0
 32 34  1  0
 32 35  1  0
 36 37  1  0
 36 38  1  0
 36 39  1  0
M  CHG  1   1   1
M  RAD  1   1   2
M  END
$$$$

     RDKit          3D

 39 38  0  0  0  0  0  0  0  0999 V2000
   -0.0027    0.0006    3.1879 S   0  0  0  0  0  2  0  0  0  0  0  0
    1.0219    0.6635    4.9081 Si  0  0  0  0  0  4  0  0  0  0  0  0
    2.4554    0.7422    4.5562 H   0  0  0  0  0  0  0  0  0  0  0  0
    0.9580   -0.3192    6.0244 H   0  0  0  0  0  0  0  0  0  0  0  0
   -2.0909   -0.2070    3.4138 Si  0  0  0  0  0  4  0  0  0  0  0  0
   -2.7311    1.0281    3.9399 H   0  0  0  0  0  0  0  0  0  0  0  0
   -2.6671   -0.3680    2.0446 H   0  0  0  0  0  0  0  0  0  0  0  0
    0.4212    2.6848    5.5791 Si  0  0  0  0  0  4  0  0  0  0  0  0
    0.1721    3.5034    4.3574 H   0  0  0  0  0  0  0  0  0  0  0  0
    1.5209    3.3379    6.2855 H   0  0  0  0  0  0  0  0  0  0  0  0
   -2.6848   -2.0013    4.5650 Si  0  0  0  0  0  4  0  0  0  0  0  0
   -4.0563   -1.8180    5.1149 H   0  0  0  0  0  0  0  0  0  0  0  0
   -2.7113   -3.2126    3.7403 H   0  0  0  0  0  0  0  0  0  0  0  0
   -1.3447   -2.3475    6.3238 Si  0  0  0  0  0  4  0  0  0  0  0  0
   -0.0559   -2.8830    5.9246 H   0  0  0  0  0  0  0  0  0  0  0  0
   -1.1681   -1.0460    6.9749 H   0  0  0  0  0  0  0  0  0  0  0  0
   -1.4102    2.7140    6.7940 Si  0  0  0  0  0  4  0  0  0  0  0  0
   -2.4586    1.9005    6.1590 H   0  0  0  0  0  0  0  0  0  0  0  0
   -1.9319    4.1116    6.8002 H   0  0  0  0  0  0  0  0  0  0  0  0
   -1.1707    2.0452    8.8625 Si  0  0  0  0  0  4  0  0  0  0  0  0
   -1.1557    0.5654    9.0002 H   0  0  0  0  0  0  0  0  0  0  0  0
   -2.3577    2.4932    9.6266 H   0  0  0  0  0  0  0  0  0  0  0  0
   -2.3589   -3.6779    7.8240 Si  0  0  0  0  0  4  0  0  0  0  0  0
   -3.1257   -4.7279    7.1655 H   0  0  0  0  0  0  0  0  0  0  0  0
   -1.3022   -4.2859    8.6461 H   0  0  0  0  0  0  0  0  0  0  0  0
    0.6115    2.8458    9.8939 Si  0  0  0  0  0  4  0  0  0  0  0  0
    0.3735    4.2804   10.1750 H   0  0  0  0  0  0  0  0  0  0  0  0
    0.7219    2.1832   11.2035 H   0  0  0  0  0  0  0  0  0  0  0  0
   -3.6737   -2.4511    9.1694 Si  0  0  0  0  0  4  0  0  0  0  0  0
   -2.8994   -1.7336   10.1671 H   0  0  0  0  0  0  0  0  0  0  0  0
   -4.5978   -3.3550    9.8425 H   0  0  0  0  0  0  0  0  0  0  0  0
   -4.8253   -0.9608    7.9637 Si  0  0  0  0  0  4  0  0  0  0  0  0
   -5.7760   -1.6496    7.0900 H   0  0  0  0  0  0  0  0  0  0  0  0
   -5.5234   -0.0703    8.8807 H   0  0  0  0  0  0  0  0  0  0  0  0
   -3.8704   -0.1258    7.1888 H   0  0  0  0  0  0  0  0  0  0  0  0
    2.4926    2.5228    8.7873 Si  0  0  0  0  0  4  0  0  0  0  0  0
    2.9056    3.8173    8.1861 H   0  0  0  0  0  0  0  0  0  0  0  0
    3.5811    2.1646    9.7321 H   0  0  0  0  0  0  0  0  0  0  0  0
    2.4132    1.4590    7.7927 H   0  0  0  0  0  0  0  0  0  0  0  0
  1  2  1  0
  1  5  1  0
  2  3  1  0
  2  4  1  0
  2  8  1  0
  5  6  1  0
  5  7  1  0
  5 11  1  0
  8  9  1  0
  8 10  1  0
  8 17  1  0
 11 12  1  0
 11 13  1  0
 11 14  1  0
 14 15  1  0
 14 16  1  0
 14 23  1  0
 17 18  1  0
 17 19  1  0
 17 20  1  0
 20 21  1  0
 20 22  1  0
 20 26  1  0
 23 24  1  0
 23 25  1  0
 23 29  1  0
 26 27  1  0
 26 28  1  0
 26 36  1  0
 29 30  1  0
 29 31  1  0
 29 32  1  0
 32 33  1  0
 32 34  1  0
 32 35  1  0
 36 37  1  0
 36 38  1  0
 36 39  1  0
M  CHG  1   1   1
M  RAD  1   1   2
M  END
$$$$

     RDKit          3D

 39 38  0  0  0  0  0  0  0  0999 V2000
   -0.0027    0.0006    3.1879 S   0  0  0  0  0  2  0  0  0  0  0  0
    1.2726   -1.4061    4.1106 Si  0  0  0  0  0  4  0  0  0  0  0  0
    1.4718   -2.6310    3.3219 H   0  0  0  0  0  0  0  0  0  0  0  0
    2.6155   -0.7861    4.2570 H   0  0  0  0  0  0  0  0  0  0  0  0
   -2.0495   -0.5234    3.2358 Si  0  0  0  0  0  4  0  0  0  0  0  0
   -2.3227   -1.8878    2.7771 H   0  0  0  0  0  0  0  0  0  0  0  0
   -2.7785    0.3798    2.2995 H   0  0  0  0  0  0  0  0  0  0  0  0
    0.6094   -1.9768    6.1593 Si  0  0  0  0  0  4  0  0  0  0  0  0
    1.3568   -3.2167    6.5176 H   0  0  0  0  0  0  0  0  0  0  0  0
   -0.8056   -2.3084    6.2224 H   0  0  0  0  0  0  0  0  0  0  0  0
   -2.9064   -0.1421    5.2679 Si  0  0  0  0  0  4  0  0  0  0  0  0
   -1.8324   -0.1379    6.2559 H   0  0  0  0  0  0  0  0  0  0  0  0
   -3.5301    1.2086    5.3156 H   0  0  0  0  0  0  0  0  0  0  0  0
   -4.4589   -1.6725    5.6780 Si  0  0  0  0  0  4  0  0  0  0  0  0
   -4.6629   -2.5622    4.5141 H   0  0  0  0  0  0  0  0  0  0  0  0
   -5.7644   -1.0204    5.9328 H   0  0  0  0  0  0  0  0  0  0  0  0
    1.1840   -0.4155    7.6511 Si  0  0  0  0  0  4  0  0  0  0  0  0
    2.3296   -0.8508    8.4720 H   0  0  0  0  0  0  0  0  0  0  0  0
    0.0841   -0.1258    8.5861 H   0  0  0  0  0  0  0  0  0  0  0  0
    1.8270    1.4726    6.6128 Si  0  0  0  0  0  4  0  0  0  0  0  0
    2.4994    1.1880    5.3517 H   0  0  0  0  0  0  0  0  0  0  0  0
    2.7898    2.1878    7.4718 H   0  0  0  0  0  0  0  0  0  0  0  0
   -3.8857   -2.9121    7.4449 Si  0  0  0  0  0  4  0  0  0  0  0  0
   -2.8733   -2.1549    8.2121 H   0  0  0  0  0  0  0  0  0  0  0  0
   -5.0380   -3.1138    8.3394 H   0  0  0  0  0  0  0  0  0  0  0  0
    0.0628    2.7733    6.1744 Si  0  0  0  0  0  4  0  0  0  0  0  0
   -0.6513    2.3125    4.9878 H   0  0  0  0  0  0  0  0  0  0  0  0
    0.5765    4.1223    5.8898 H   0  0  0  0  0  0  0  0  0  0  0  0
   -3.0546   -4.8768    6.8421 Si  0  0  0  0  0  4  0  0  0  0  0  0
   -3.9860   -5.9522    7.2441 H   0  0  0  0  0  0  0  0  0  0  0  0
   -1.7913   -5.1312    7.5613 H   0  0  0  0  0  0  0  0  0  0  0  0
   -2.6334   -4.9865    4.6668 Si  0  0  0  0  0  4  0  0  0  0  0  0
   -3.2567   -6.1949    4.1064 H   0  0  0  0  0  0  0  0  0  0  0  0
   -1.1823   -5.0884    4.3893 H   0  0  0  0  0  0  0  0  0  0  0  0
   -3.1603   -3.8411    3.9318 H   0  0  0  0  0  0  0  0  0  0  0  0
   -1.3339    2.8135    7.9220 Si  0  0  0  0  0  4  0  0  0  0  0  0
   -1.1813    1.5433    8.6531 H   0  0  0  0  0  0  0  0  0  0  0  0
   -2.6915    2.9857    7.4105 H   0  0  0  0  0  0  0  0  0  0  0  0
   -0.9700    3.9690    8.7570 H   0  0  0  0  0  0  0  0  0  0  0  0
  1  2  1  0
  1  5  1  0
  2  3  1  0
  2  4  1  0
  2  8  1  0
  5  6  1  0
  5  7  1  0
  5 11  1  0
  8  9  1  0
  8 10  1  0
  8 17  1  0
 11 12  1  0
 11 13  1  0
 11 14  1  0
 14 15  1  0
 14 16  1  0
 14 23  1  0
 17 18  1  0
 17 19  1  0
 17 20  1  0
 20 21  1  0
 20 22  1  0
 20 26  1  0
 23 24  1  0
 23 25  1  0
 23 29  1  0
 26 27  1  0
 26 28  1  0
 26 36  1  0
 29 30  1  0
 29 31  1  0
 29 32  1  0
 32 33  1  0
 32 34  1  0
 32 35  1  0
 36 37  1  0
 36 38  1  0
 36 39  1  0
M  CHG  1   1   1
M  RAD  1   1   2
M  END
$$$$

     RDKit          3D

 39 38  0  0  0  0  0  0  0  0999 V2000
   -0.0027    0.0006    3.1879 S   0  0  0  0  0  2  0  0  0  0  0  0
   -2.0671   -0.5806    3.0144 Si  0  0  0  0  0  4  0  0  0  0  0  0
   -2.5919    0.0564    1.7853 H   0  0  0  0  0  0  0  0  0  0  0  0
   -2.2033   -2.0317    2.8181 H   0  0  0  0  0  0  0  0  0  0  0  0
    0.4652    0.5860    5.2050 Si  0  0  0  0  0  4  0  0  0  0  0  0
   -0.4449   -0.1735    6.0892 H   0  0  0  0  0  0  0  0  0  0  0  0
    1.8246    0.1086    5.4991 H   0  0  0  0  0  0  0  0  0  0  0  0
   -3.2157    0.0962    4.8187 Si  0  0  0  0  0  4  0  0  0  0  0  0
   -2.2963    0.6789    5.8218 H   0  0  0  0  0  0  0  0  0  0  0  0
   -4.0973    1.2026    4.3856 H   0  0  0  0  0  0  0  0  0  0  0  0
    0.2595    2.7790    5.4796 Si  0  0  0  0  0  4  0  0  0  0  0  0
   -0.9931    3.0665    6.1890 H   0  0  0  0  0  0  0  0  0  0  0  0
    0.1845    3.4103    4.1420 H   0  0  0  0  0  0  0  0  0  0  0  0
    2.0270    3.6375    6.5623 Si  0  0  0  0  0  4  0  0  0  0  0  0
    3.0709    2.6129    6.7502 H   0  0  0  0  0  0  0  0  0  0  0  0
    2.5753    4.7858    5.8312 H   0  0  0  0  0  0  0  0  0  0  0  0
   -4.3731   -1.6101    5.6370 Si  0  0  0  0  0  4  0  0  0  0  0  0
   -4.0574   -2.8491    4.9130 H   0  0  0  0  0  0  0  0  0  0  0  0
   -5.8147   -1.3168    5.4137 H   0  0  0  0  0  0  0  0  0  0  0  0
   -4.0874   -1.8502    7.8283 Si  0  0  0  0  0  4  0  0  0  0  0  0
   -5.0624   -2.8600    8.2957 H   0  0  0  0  0  0  0  0  0  0  0  0
   -4.4124   -0.5906    8.4899 H   0  0  0  0  0  0  0  0  0  0  0  0
    1.3183    4.2536    8.6029 Si  0  0  0  0  0  4  0  0  0  0  0  0
    2.4558    4.7515    9.3699 H   0  0  0  0  0  0  0  0  0  0  0  0
    0.2435    5.2326    8.5126 H   0  0  0  0  0  0  0  0  0  0  0  0
   -2.0574   -2.5897    8.3299 Si  0  0  0  0  0  4  0  0  0  0  0  0
   -2.0737   -4.0459    8.5645 H   0  0  0  0  0  0  0  0  0  0  0  0
   -1.0711   -2.2958    7.2992 H   0  0  0  0  0  0  0  0  0  0  0  0
    0.5804    2.3929    9.6261 Si  0  0  0  0  0  4  0  0  0  0  0  0
    0.4527    2.6118   11.0722 H   0  0  0  0  0  0  0  0  0  0  0  0
   -0.7285    2.0398    9.0595 H   0  0  0  0  0  0  0  0  0  0  0  0
    2.0960    0.7839    9.2282 Si  0  0  0  0  0  4  0  0  0  0  0  0
    2.5127    0.8835    7.8121 H   0  0  0  0  0  0  0  0  0  0  0  0
    1.5888   -0.5337    9.5667 H   0  0  0  0  0  0  0  0  0  0  0  0
    3.2806    1.0733   10.0553 H   0  0  0  0  0  0  0  0  0  0  0  0
   -1.4405   -1.6404   10.2723 Si  0  0  0  0  0  4  0  0  0  0  0  0
   -2.3407   -2.0563   11.3409 H   0  0  0  0  0  0  0  0  0  0  0  0
   -0.0604   -1.9534   10.6037 H   0  0  0  0  0  0  0  0  0  0  0  0
   -1.5591   -0.1730   10.1473 H   0  0  0  0  0  0  0  0  0  0  0  0
  1  2  1  0
  1  5  1  0
  2  3  1  0
  2  4  1  0
  2  8  1  0
  5  6  1  0
  5  7  1  0
  5 11  1  0
  8  9  1  0
  8 10  1  0
  8 17  1  0
 11 12  1  0
 11 13  1  0
 11 14  1  0
 14 15  1  0
 14 16  1  0
 14 23  1  0
 17 18  1  0
 17 19  1  0
 17 20  1  0
 20 21  1  0
 20 22  1  0
 20 26  1  0
 23 24  1  0
 23 25  1  0
 23 29  1  0
 26 27  1  0
 26 28  1  0
 26 36  1  0
 29 30  1  0
 29 31  1  0
 29 32  1  0
 32 33  1  0
 32 34  1  0
 32 35  1  0
 36 37  1  0
 36 38  1  0
 36 39  1  0
M  CHG  1   1   1
M  RAD  1   1   2
M  END
$$$$
