
     RDKit          3D

 39 38  0  0  0  0  0  0  0  0999 V2000
    0.0103   -0.0467   -3.1531 S   0  0  0  0  0  2  0  0  0  0  0  0
    1.4967    0.3482   -4.6211 Si  0  0  0  0  0  4  0  0  0  0  0  0
    1.0761   -0.0145   -5.9776 H   0  0  0  0  0  0  0  0  0  0  0  0
    2.7374   -0.3936   -4.3319 H   0  0  0  0  0  0  0  0  0  0  0  0
   -1.7915   -0.7016   -4.1282 Si  0  0  0  0  0  4  0  0  0  0  0  0
   -2.5679   -1.5468   -3.1999 H   0  0  0  0  0  0  0  0  0  0  0  0
   -2.5812    0.5141   -4.4223 H   0  0  0  0  0  0  0  0  0  0  0  0
    2.0242    2.5410   -4.6814 Si  0  0  0  0  0  4  0  0  0  0  0  0
    3.2417    2.6544   -5.4655 H   0  0  0  0  0  0  0  0  0  0  0  0
    2.3591    2.9189   -3.2904 H   0  0  0  0  0  0  0  0  0  0  0  0
   -1.3470   -1.7718   -6.0286 Si  0  0  0  0  0  4  0  0  0  0  0  0
   -1.8550   -3.1613   -5.9589 H   0  0  0  0  0  0  0  0  0  0  0  0
    0.1069   -1.8673   -6.1934 H   0  0  0  0  0  0  0  0  0  0  0  0
   -2.2814   -0.6828   -7.7478 Si  0  0  0  0  0  4  0  0  0  0  0  0
   -2.7843   -1.6847   -8.7090 H   0  0  0  0  0  0  0  0  0  0  0  0
   -3.3733    0.1720   -7.2484 H   0  0  0  0  0  0  0  0  0  0  0  0
    0.3474    3.7451   -5.4492 Si  0  0  0  0  0  4  0  0  0  0  0  0
   -0.0640    4.7271   -4.4070 H   0  0  0  0  0  0  0  0  0  0  0  0
   -0.8047    2.8370   -5.6902 H   0  0  0  0  0  0  0  0  0  0  0  0
    0.8119    4.8480   -7.2921 Si  0  0  0  0  0  4  0  0  0  0  0  0
    0.9766    6.2711   -7.0352 H   0  0  0  0  0  0  0  0  0  0  0  0
   -0.3189    4.7178   -8.2547 H   0  0  0  0  0  0  0  0  0  0  0  0
   -0.6825    0.5496   -8.7179 Si  0  0  0  0  0  4  0  0  0  0  0  0
    0.2733   -0.3633   -9.3530 H   0  0  0  0  0  0  0  0  0  0  0  0
   -0.0271    1.3552   -7.6937 H   0  0  0  0  0  0  0  0  0  0  0  0
    2.6336    4.0990   -8.3228 Si  0  0  0  0  0  4  0  0  0  0  0  0
    2.7369    4.8345   -9.6141 H   0  0  0  0  0  0  0  0  0  0  0  0
    2.4444    2.6895   -8.6388 H   0  0  0  0  0  0  0  0  0  0  0  0
   -1.5745    1.8426  -10.2959 Si  0  0  0  0  0  4  0  0  0  0  0  0
   -0.5000    2.5463  -10.9963 H   0  0  0  0  0  0  0  0  0  0  0  0
   -2.5287    2.8020   -9.7483 H   0  0  0  0  0  0  0  0  0  0  0  0
   -2.6069    0.4982  -11.7708 Si  0  0  0  0  0  4  0  0  0  0  0  0
   -2.8345    1.2517  -12.9968 H   0  0  0  0  0  0  0  0  0  0  0  0
   -3.8721    0.0439  -11.1979 H   0  0  0  0  0  0  0  0  0  0  0  0
   -1.7465   -0.6608  -11.9977 H   0  0  0  0  0  0  0  0  0  0  0  0
    4.4791    4.5039   -7.1730 Si  0  0  0  0  0  4  0  0  0  0  0  0
    5.1788    3.2026   -6.9730 H   0  0  0  0  0  0  0  0  0  0  0  0
    5.3396    5.4997   -7.7765 H   0  0  0  0  0  0  0  0  0  0  0  0
    4.0764    4.9478   -5.8122 H   0  0  0  0  0  0  0  0  0  0  0  0
  1  2  1  0
  1  5  1  0
  2  3  1  0
  2  4  1  0
  2  8  1  0
  5  6  1  0
  5  7  1  0
  5 11  1  0
  8  9  1  0
  8 10  1  0
  8 17  1  0
 11 12  1  0
 11 13  1  0
 11 14  1  0
 14 15  1  0
 14 16  1  0
 14 23  1  0
 17 18  1  0
 17 19  1  0
 17 20  1  0
 20 21  1  0
 20 22  1  0
 20 26  1  0
 23 24  1  0
 23 25  1  0
 23 29  1  0
 26 27  1  0
 26 28  1  0
 26 36  1  0
 29 30  1  0
 29 31  1  0
 29 32  1  0
 32 33  1  0
 32 34  1  0
 32 35  1  0
 36 37  1  0
 36 38  1  0
 36 39  1  0
M  CHG  1   1   1
M  RAD  1   1   2
M  END
$$$$
