
     RDKit          3D

 39 38  0  0  0  0  0  0  0  0999 V2000
    2.0736   -0.1357   -2.1851 S   0  0  0  0  0  2  0  0  0  0  0  0
    3.9068    0.5790   -1.4028 Si  0  0  0  0  0  4  0  0  0  0  0  0
    4.0860    1.9818   -1.7908 H   0  0  0  0  0  0  0  0  0  0  0  0
    3.8009    0.5749    0.0849 H   0  0  0  0  0  0  0  0  0  0  0  0
    2.2904   -2.0489   -3.1407 Si  0  0  0  0  0  4  0  0  0  0  0  0
    3.3156   -1.9070   -4.1712 H   0  0  0  0  0  0  0  0  0  0  0  0
    2.7236   -3.0547   -2.1583 H   0  0  0  0  0  0  0  0  0  0  0  0
    5.6408   -0.6800   -1.9482 Si  0  0  0  0  0  4  0  0  0  0  0  0
    5.3646   -2.0592   -1.5535 H   0  0  0  0  0  0  0  0  0  0  0  0
    6.7992   -0.2325   -1.1229 H   0  0  0  0  0  0  0  0  0  0  0  0
    0.3839   -2.6190   -4.1297 Si  0  0  0  0  0  4  0  0  0  0  0  0
   -0.1737   -3.7698   -3.4084 H   0  0  0  0  0  0  0  0  0  0  0  0
   -0.6005   -1.5351   -4.0793 H   0  0  0  0  0  0  0  0  0  0  0  0
    0.7529   -3.1308   -6.2931 Si  0  0  0  0  0  4  0  0  0  0  0  0
    2.1916   -2.9402   -6.6145 H   0  0  0  0  0  0  0  0  0  0  0  0
   -0.0439   -2.3075   -7.1800 H   0  0  0  0  0  0  0  0  0  0  0  0
    6.2038   -0.5357   -4.0659 Si  0  0  0  0  0  4  0  0  0  0  0  0
    5.5679   -1.5504   -4.9196 H   0  0  0  0  0  0  0  0  0  0  0  0
    7.6717   -0.7741   -4.1782 H   0  0  0  0  0  0  0  0  0  0  0  0
    5.7942    1.4581   -4.9501 Si  0  0  0  0  0  4  0  0  0  0  0  0
    6.3975    2.5098   -4.1148 H   0  0  0  0  0  0  0  0  0  0  0  0
    6.5111    1.5175   -6.2553 H   0  0  0  0  0  0  0  0  0  0  0  0
    0.1636   -5.2778   -6.5983 Si  0  0  0  0  0  4  0  0  0  0  0  0
    0.0731   -5.5846   -8.0198 H   0  0  0  0  0  0  0  0  0  0  0  0
    1.1656   -6.1262   -5.9218 H   0  0  0  0  0  0  0  0  0  0  0  0
    3.6376    1.7925   -5.3218 Si  0  0  0  0  0  4  0  0  0  0  0  0
    3.1723    2.8444   -4.3953 H   0  0  0  0  0  0  0  0  0  0  0  0
    2.8673    0.5449   -5.1312 H   0  0  0  0  0  0  0  0  0  0  0  0
   -1.8339   -5.5399   -5.5858 Si  0  0  0  0  0  4  0  0  0  0  0  0
   -2.2979   -6.9110   -5.6765 H   0  0  0  0  0  0  0  0  0  0  0  0
   -1.6479   -5.0839   -4.1929 H   0  0  0  0  0  0  0  0  0  0  0  0
   -3.2493   -4.1052   -6.5765 Si  0  0  0  0  0  4  0  0  0  0  0  0
   -4.6222   -4.4085   -6.1959 H   0  0  0  0  0  0  0  0  0  0  0  0
   -2.8348   -2.7486   -6.1542 H   0  0  0  0  0  0  0  0  0  0  0  0
   -3.0148   -4.1897   -8.0194 H   0  0  0  0  0  0  0  0  0  0  0  0
    3.3001    2.4557   -7.4367 Si  0  0  0  0  0  4  0  0  0  0  0  0
    3.5952    1.3234   -8.3218 H   0  0  0  0  0  0  0  0  0  0  0  0
    4.1959    3.5631   -7.7774 H   0  0  0  0  0  0  0  0  0  0  0  0
    1.8973    2.8585   -7.6059 H   0  0  0  0  0  0  0  0  0  0  0  0
  1  2  1  0
  1  5  1  0
  2  3  1  0
  2  4  1  0
  2  8  1  0
  5  6  1  0
  5  7  1  0
  5 11  1  0
  8  9  1  0
  8 10  1  0
  8 17  1  0
 11 12  1  0
 11 13  1  0
 11 14  1  0
 14 15  1  0
 14 16  1  0
 14 23  1  0
 17 18  1  0
 17 19  1  0
 17 20  1  0
 20 21  1  0
 20 22  1  0
 20 26  1  0
 23 24  1  0
 23 25  1  0
 23 29  1  0
 26 27  1  0
 26 28  1  0
 26 36  1  0
 29 30  1  0
 29 31  1  0
 29 32  1  0
 32 33  1  0
 32 34  1  0
 32 35  1  0
 36 37  1  0
 36 38  1  0
 36 39  1  0
M  CHG  1   1   1
M  RAD  1   1   2
M  END
$$$$

     RDKit          3D

 39 38  0  0  0  0  0  0  0  0999 V2000
    2.0736   -0.1357   -2.1851 S   0  0  0  0  0  2  0  0  0  0  0  0
    0.4249   -0.7004   -3.4120 Si  0  0  0  0  0  4  0  0  0  0  0  0
    0.1400   -2.1393   -3.3497 H   0  0  0  0  0  0  0  0  0  0  0  0
   -0.7368    0.0790   -3.0304 H   0  0  0  0  0  0  0  0  0  0  0  0
    3.8691   -1.1504   -2.7003 Si  0  0  0  0  0  4  0  0  0  0  0  0
    3.6387   -2.3817   -3.4569 H   0  0  0  0  0  0  0  0  0  0  0  0
    4.5306   -1.5614   -1.4292 H   0  0  0  0  0  0  0  0  0  0  0  0
    0.9108   -0.1925   -5.5551 Si  0  0  0  0  0  4  0  0  0  0  0  0
   -0.1911   -0.5242   -6.4368 H   0  0  0  0  0  0  0  0  0  0  0  0
    2.0407   -1.0974   -5.9191 H   0  0  0  0  0  0  0  0  0  0  0  0
    5.2989    0.1873   -3.7914 Si  0  0  0  0  0  4  0  0  0  0  0  0
    4.6373    1.4404   -4.1533 H   0  0  0  0  0  0  0  0  0  0  0  0
    6.4612    0.5222   -2.9501 H   0  0  0  0  0  0  0  0  0  0  0  0
    6.0667   -0.8355   -5.6235 Si  0  0  0  0  0  4  0  0  0  0  0  0
    4.9207   -1.5649   -6.2244 H   0  0  0  0  0  0  0  0  0  0  0  0
    7.1109   -1.8129   -5.2513 H   0  0  0  0  0  0  0  0  0  0  0  0
    1.6253    1.8830   -5.7301 Si  0  0  0  0  0  4  0  0  0  0  0  0
    3.0347    1.9675   -6.1889 H   0  0  0  0  0  0  0  0  0  0  0  0
    1.6048    2.5011   -4.3865 H   0  0  0  0  0  0  0  0  0  0  0  0
    0.3758    3.1313   -7.0657 Si  0  0  0  0  0  4  0  0  0  0  0  0
   -0.9397    3.3320   -6.4486 H   0  0  0  0  0  0  0  0  0  0  0  0
    1.0231    4.4466   -7.2015 H   0  0  0  0  0  0  0  0  0  0  0  0
    6.9619    0.5991   -7.0577 Si  0  0  0  0  0  4  0  0  0  0  0  0
    8.4116    0.4798   -7.1464 H   0  0  0  0  0  0  0  0  0  0  0  0
    6.6162    1.9887   -6.6742 H   0  0  0  0  0  0  0  0  0  0  0  0
    0.1117    2.2623   -9.0725 Si  0  0  0  0  0  4  0  0  0  0  0  0
   -0.1601    0.8225   -9.0035 H   0  0  0  0  0  0  0  0  0  0  0  0
   -1.1012    2.8794   -9.6830 H   0  0  0  0  0  0  0  0  0  0  0  0
    6.1007    0.1923   -9.0993 Si  0  0  0  0  0  4  0  0  0  0  0  0
    5.8780    1.4378   -9.8318 H   0  0  0  0  0  0  0  0  0  0  0  0
    6.9366   -0.7349   -9.8411 H   0  0  0  0  0  0  0  0  0  0  0  0
    4.0759   -0.7430   -8.7740 Si  0  0  0  0  0  4  0  0  0  0  0  0
    4.1932   -2.1825   -8.5388 H   0  0  0  0  0  0  0  0  0  0  0  0
    3.5312   -0.1349   -7.5639 H   0  0  0  0  0  0  0  0  0  0  0  0
    3.1701   -0.4344   -9.8786 H   0  0  0  0  0  0  0  0  0  0  0  0
    1.8160    2.7269  -10.4373 Si  0  0  0  0  0  4  0  0  0  0  0  0
    3.0368    3.0421   -9.7080 H   0  0  0  0  0  0  0  0  0  0  0  0
    2.0875    1.5547  -11.3107 H   0  0  0  0  0  0  0  0  0  0  0  0
    1.4846    3.8377  -11.3575 H   0  0  0  0  0  0  0  0  0  0  0  0
  1  2  1  0
  1  5  1  0
  2  3  1  0
  2  4  1  0
  2  8  1  0
  5  6  1  0
  5  7  1  0
  5 11  1  0
  8  9  1  0
  8 10  1  0
  8 17  1  0
 11 12  1  0
 11 13  1  0
 11 14  1  0
 14 15  1  0
 14 16  1  0
 14 23  1  0
 17 18  1  0
 17 19  1  0
 17 20  1  0
 20 21  1  0
 20 22  1  0
 20 26  1  0
 23 24  1  0
 23 25  1  0
 23 29  1  0
 26 27  1  0
 26 28  1  0
 26 36  1  0
 29 30  1  0
 29 31  1  0
 29 32  1  0
 32 33  1  0
 32 34  1  0
 32 35  1  0
 36 37  1  0
 36 38  1  0
 36 39  1  0
M  CHG  1   1   1
M  RAD  1   1   2
M  END
$$$$

     RDKit          3D

 39 38  0  0  0  0  0  0  0  0999 V2000
    2.0736   -0.1357   -2.1851 S   0  0  0  0  0  2  0  0  0  0  0  0
    0.5130   -1.0183   -3.3375 Si  0  0  0  0  0  4  0  0  0  0  0  0
    0.4222   -2.4714   -3.1480 H   0  0  0  0  0  0  0  0  0  0  0  0
   -0.7414   -0.3694   -3.0096 H   0  0  0  0  0  0  0  0  0  0  0  0
    3.9874   -0.9447   -2.6341 Si  0  0  0  0  0  4  0  0  0  0  0  0
    3.9219   -2.2568   -3.2788 H   0  0  0  0  0  0  0  0  0  0  0  0
    4.6994   -1.1524   -1.3408 H   0  0  0  0  0  0  0  0  0  0  0  0
    0.9244   -0.6390   -5.5225 Si  0  0  0  0  0  4  0  0  0  0  0  0
   -0.1247   -1.1892   -6.3581 H   0  0  0  0  0  0  0  0  0  0  0  0
    2.1641   -1.4146   -5.8217 H   0  0  0  0  0  0  0  0  0  0  0  0
    5.2252    0.4704   -3.8545 Si  0  0  0  0  0  4  0  0  0  0  0  0
    4.4023    1.5886   -4.3145 H   0  0  0  0  0  0  0  0  0  0  0  0
    6.3337    1.0281   -3.0601 H   0  0  0  0  0  0  0  0  0  0  0  0
    6.1199   -0.5973   -5.6015 Si  0  0  0  0  0  4  0  0  0  0  0  0
    5.0803   -1.5215   -6.1226 H   0  0  0  0  0  0  0  0  0  0  0  0
    7.2853   -1.3918   -5.1599 H   0  0  0  0  0  0  0  0  0  0  0  0
    1.3563    1.4896   -5.8846 Si  0  0  0  0  0  4  0  0  0  0  0  0
    2.7413    1.7197   -6.3671 H   0  0  0  0  0  0  0  0  0  0  0  0
    1.2554    2.2141   -4.5992 H   0  0  0  0  0  0  0  0  0  0  0  0
   -0.0499    2.4404   -7.3066 Si  0  0  0  0  0  4  0  0  0  0  0  0
   -1.3796    2.5182   -6.6923 H   0  0  0  0  0  0  0  0  0  0  0  0
    0.4166    3.8130   -7.5635 H   0  0  0  0  0  0  0  0  0  0  0  0
    6.8145    0.8129   -7.1652 Si  0  0  0  0  0  4  0  0  0  0  0  0
    8.2670    0.8792   -7.2619 H   0  0  0  0  0  0  0  0  0  0  0  0
    6.2875    2.1725   -6.8984 H   0  0  0  0  0  0  0  0  0  0  0  0
   -0.1986    1.3728   -9.2276 Si  0  0  0  0  0  4  0  0  0  0  0  0
   -0.2764   -0.0788   -9.0315 H   0  0  0  0  0  0  0  0  0  0  0  0
   -1.4836    1.7684   -9.8733 H   0  0  0  0  0  0  0  0  0  0  0  0
    6.0125    0.1195   -9.1530 Si  0  0  0  0  0  4  0  0  0  0  0  0
    5.6251    1.2560   -9.9870 H   0  0  0  0  0  0  0  0  0  0  0  0
    6.9632   -0.7499   -9.8229 H   0  0  0  0  0  0  0  0  0  0  0  0
    4.1304   -1.0438   -8.7224 Si  0  0  0  0  0  4  0  0  0  0  0  0
    4.4385   -2.4291   -8.3656 H   0  0  0  0  0  0  0  0  0  0  0  0
    3.5112   -0.4102   -7.5622 H   0  0  0  0  0  0  0  0  0  0  0  0
    3.1903   -0.9552   -9.8378 H   0  0  0  0  0  0  0  0  0  0  0  0
    1.4270    1.9384  -10.6492 Si  0  0  0  0  0  4  0  0  0  0  0  0
    2.5960    2.4747   -9.9654 H   0  0  0  0  0  0  0  0  0  0  0  0
    1.8509    0.7408  -11.4217 H   0  0  0  0  0  0  0  0  0  0  0  0
    0.9496    2.9112  -11.6572 H   0  0  0  0  0  0  0  0  0  0  0  0
  1  2  1  0
  1  5  1  0
  2  3  1  0
  2  4  1  0
  2  8  1  0
  5  6  1  0
  5  7  1  0
  5 11  1  0
  8  9  1  0
  8 10  1  0
  8 17  1  0
 11 12  1  0
 11 13  1  0
 11 14  1  0
 14 15  1  0
 14 16  1  0
 14 23  1  0
 17 18  1  0
 17 19  1  0
 17 20  1  0
 20 21  1  0
 20 22  1  0
 20 26  1  0
 23 24  1  0
 23 25  1  0
 23 29  1  0
 26 27  1  0
 26 28  1  0
 26 36  1  0
 29 30  1  0
 29 31  1  0
 29 32  1  0
 32 33  1  0
 32 34  1  0
 32 35  1  0
 36 37  1  0
 36 38  1  0
 36 39  1  0
M  CHG  1   1   1
M  RAD  1   1   2
M  END
$$$$

     RDKit          3D

 39 38  0  0  0  0  0  0  0  0999 V2000
    2.0736   -0.1357   -2.1851 S   0  0  0  0  0  2  0  0  0  0  0  0
    3.9786   -0.9743   -1.8554 Si  0  0  0  0  0  4  0  0  0  0  0  0
    4.0134   -1.5251   -0.4687 H   0  0  0  0  0  0  0  0  0  0  0  0
    4.2826   -2.1188   -2.7386 H   0  0  0  0  0  0  0  0  0  0  0  0
    1.5472    0.0915   -4.2167 Si  0  0  0  0  0  4  0  0  0  0  0  0
    2.6342    0.5992   -5.0598 H   0  0  0  0  0  0  0  0  0  0  0  0
    0.4589    1.1099   -4.2950 H   0  0  0  0  0  0  0  0  0  0  0  0
    5.6256    0.5229   -1.9856 Si  0  0  0  0  0  4  0  0  0  0  0  0
    5.1595    1.8887   -1.8146 H   0  0  0  0  0  0  0  0  0  0  0  0
    6.6408    0.2727   -0.9223 H   0  0  0  0  0  0  0  0  0  0  0  0
    0.6778   -1.7896   -5.0844 Si  0  0  0  0  0  4  0  0  0  0  0  0
   -0.7232   -1.9199   -4.6336 H   0  0  0  0  0  0  0  0  0  0  0  0
    1.4688   -2.9591   -4.7466 H   0  0  0  0  0  0  0  0  0  0  0  0
    0.6125   -1.6072   -7.3246 Si  0  0  0  0  0  4  0  0  0  0  0  0
    0.8956   -2.9240   -7.9301 H   0  0  0  0  0  0  0  0  0  0  0  0
   -0.7325   -1.1648   -7.7600 H   0  0  0  0  0  0  0  0  0  0  0  0
    6.6796    0.2314   -3.9388 Si  0  0  0  0  0  4  0  0  0  0  0  0
    7.9650    0.9282   -3.9699 H   0  0  0  0  0  0  0  0  0  0  0  0
    5.8565    0.7432   -5.0362 H   0  0  0  0  0  0  0  0  0  0  0  0
    6.9724   -1.9792   -4.2133 Si  0  0  0  0  0  4  0  0  0  0  0  0
    6.2350   -2.7473   -3.2163 H   0  0  0  0  0  0  0  0  0  0  0  0
    8.3999   -2.3279   -4.0800 H   0  0  0  0  0  0  0  0  0  0  0  0
    2.0767   -0.1032   -8.0520 Si  0  0  0  0  0  4  0  0  0  0  0  0
    3.2182   -0.0989   -7.1245 H   0  0  0  0  0  0  0  0  0  0  0  0
    1.4456    1.2294   -8.0422 H   0  0  0  0  0  0  0  0  0  0  0  0
    6.2907   -2.5801   -6.2332 Si  0  0  0  0  0  4  0  0  0  0  0  0
    7.4027   -2.8728   -7.1449 H   0  0  0  0  0  0  0  0  0  0  0  0
    5.4570   -1.4793   -6.7921 H   0  0  0  0  0  0  0  0  0  0  0  0
    2.7654   -0.5466  -10.1259 Si  0  0  0  0  0  4  0  0  0  0  0  0
    2.9905    0.7277  -10.8483 H   0  0  0  0  0  0  0  0  0  0  0  0
    1.7924   -1.3618  -10.8676 H   0  0  0  0  0  0  0  0  0  0  0  0
    4.7129   -1.6083  -10.0045 Si  0  0  0  0  0  4  0  0  0  0  0  0
    5.2452   -1.9850  -11.2978 H   0  0  0  0  0  0  0  0  0  0  0  0
    4.5118   -2.7980   -9.1336 H   0  0  0  0  0  0  0  0  0  0  0  0
    5.6484   -0.7300   -9.2553 H   0  0  0  0  0  0  0  0  0  0  0  0
    4.9404   -4.3782   -6.1330 Si  0  0  0  0  0  4  0  0  0  0  0  0
    3.7506   -4.0610   -5.3485 H   0  0  0  0  0  0  0  0  0  0  0  0
    4.5290   -4.6659   -7.5182 H   0  0  0  0  0  0  0  0  0  0  0  0
    5.6435   -5.5338   -5.5948 H   0  0  0  0  0  0  0  0  0  0  0  0
  1  2  1  0
  1  5  1  0
  2  3  1  0
  2  4  1  0
  2  8  1  0
  5  6  1  0
  5  7  1  0
  5 11  1  0
  8  9  1  0
  8 10  1  0
  8 17  1  0
 11 12  1  0
 11 13  1  0
 11 14  1  0
 14 15  1  0
 14 16  1  0
 14 23  1  0
 17 18  1  0
 17 19  1  0
 17 20  1  0
 20 21  1  0
 20 22  1  0
 20 26  1  0
 23 24  1  0
 23 25  1  0
 23 29  1  0
 26 27  1  0
 26 28  1  0
 26 36  1  0
 29 30  1  0
 29 31  1  0
 29 32  1  0
 32 33  1  0
 32 34  1  0
 32 35  1  0
 36 37  1  0
 36 38  1  0
 36 39  1  0
M  CHG  1   1   1
M  RAD  1   1   2
M  END
$$$$

     RDKit          3D

 39 38  0  0  0  0  0  0  0  0999 V2000
    2.0736   -0.1357   -2.1851 S   0  0  0  0  0  2  0  0  0  0  0  0
    0.8424   -1.6212   -3.0906 Si  0  0  0  0  0  4  0  0  0  0  0  0
    1.1664   -2.9789   -2.6354 H   0  0  0  0  0  0  0  0  0  0  0  0
   -0.5486   -1.3025   -2.8342 H   0  0  0  0  0  0  0  0  0  0  0  0
    4.1437   -0.4420   -2.5589 Si  0  0  0  0  0  4  0  0  0  0  0  0
    4.4618   -1.8159   -2.9500 H   0  0  0  0  0  0  0  0  0  0  0  0
    4.8699   -0.1953   -1.2805 H   0  0  0  0  0  0  0  0  0  0  0  0
    1.1548   -1.5567   -5.3234 Si  0  0  0  0  0  4  0  0  0  0  0  0
    0.3155   -2.5261   -5.9998 H   0  0  0  0  0  0  0  0  0  0  0  0
    2.5674   -1.9935   -5.5278 H   0  0  0  0  0  0  0  0  0  0  0  0
    4.9421    1.0103   -4.0679 Si  0  0  0  0  0  4  0  0  0  0  0  0
    3.8407    1.7451   -4.6892 H   0  0  0  0  0  0  0  0  0  0  0  0
    5.8367    1.9959   -3.4359 H   0  0  0  0  0  0  0  0  0  0  0  0
    6.1243   -0.0690   -5.6267 Si  0  0  0  0  0  4  0  0  0  0  0  0
    5.3968   -1.3290   -5.9263 H   0  0  0  0  0  0  0  0  0  0  0  0
    7.4622   -0.4060   -5.0969 H   0  0  0  0  0  0  0  0  0  0  0  0
    0.9675    0.5006   -6.0857 Si  0  0  0  0  0  4  0  0  0  0  0  0
    2.2355    1.0171   -6.6597 H   0  0  0  0  0  0  0  0  0  0  0  0
    0.6495    1.3943   -4.9509 H   0  0  0  0  0  0  0  0  0  0  0  0
   -0.6340    0.7338   -7.5970 Si  0  0  0  0  0  4  0  0  0  0  0  0
   -1.9381    0.5473   -6.9518 H   0  0  0  0  0  0  0  0  0  0  0  0
   -0.5743    2.1090   -8.1193 H   0  0  0  0  0  0  0  0  0  0  0  0
    6.4075    1.1616   -7.4493 Si  0  0  0  0  0  4  0  0  0  0  0  0
    7.7822    1.6151   -7.6174 H   0  0  0  0  0  0  0  0  0  0  0  0
    5.5124    2.3427   -7.4131 H   0  0  0  0  0  0  0  0  0  0  0  0
   -0.4501   -0.6719   -9.2829 Si  0  0  0  0  0  4  0  0  0  0  0  0
   -0.1140   -2.0233   -8.8221 H   0  0  0  0  0  0  0  0  0  0  0  0
   -1.7867   -0.7821   -9.9355 H   0  0  0  0  0  0  0  0  0  0  0  0
    5.8595   -0.0883   -9.2418 Si  0  0  0  0  0  4  0  0  0  0  0  0
    5.1748    0.7165  -10.2521 H   0  0  0  0  0  0  0  0  0  0  0  0
    7.0262   -0.7639   -9.7810 H   0  0  0  0  0  0  0  0  0  0  0  0
    4.3812   -1.6327   -8.5275 Si  0  0  0  0  0  4  0  0  0  0  0  0
    5.0664   -2.7830   -7.9372 H   0  0  0  0  0  0  0  0  0  0  0  0
    3.5936   -0.9939   -7.4774 H   0  0  0  0  0  0  0  0  0  0  0  0
    3.4680   -2.0225   -9.5998 H   0  0  0  0  0  0  0  0  0  0  0  0
    0.9642    0.0526  -10.8508 Si  0  0  0  0  0  4  0  0  0  0  0  0
    1.9241    1.0144  -10.3260 H   0  0  0  0  0  0  0  0  0  0  0  0
    1.7204   -1.0994  -11.4090 H   0  0  0  0  0  0  0  0  0  0  0  0
    0.2418    0.6453  -11.9985 H   0  0  0  0  0  0  0  0  0  0  0  0
  1  2  1  0
  1  5  1  0
  2  3  1  0
  2  4  1  0
  2  8  1  0
  5  6  1  0
  5  7  1  0
  5 11  1  0
  8  9  1  0
  8 10  1  0
  8 17  1  0
 11 12  1  0
 11 13  1  0
 11 14  1  0
 14 15  1  0
 14 16  1  0
 14 23  1  0
 17 18  1  0
 17 19  1  0
 17 20  1  0
 20 21  1  0
 20 22  1  0
 20 26  1  0
 23 24  1  0
 23 25  1  0
 23 29  1  0
 26 27  1  0
 26 28  1  0
 26 36  1  0
 29 30  1  0
 29 31  1  0
 29 32  1  0
 32 33  1  0
 32 34  1  0
 32 35  1  0
 36 37  1  0
 36 38  1  0
 36 39  1  0
M  CHG  1   1   1
M  RAD  1   1   2
M  END
$$$$

     RDKit          3D

 39 38  0  0  0  0  0  0  0  0999 V2000
    2.0736   -0.1357   -2.1851 S   0  0  0  0  0  2  0  0  0  0  0  0
    3.3935    1.4277   -1.5884 Si  0  0  0  0  0  4  0  0  0  0  0  0
    2.8420    2.7635   -1.8477 H   0  0  0  0  0  0  0  0  0  0  0  0
    3.7201    1.2609   -0.1857 H   0  0  0  0  0  0  0  0  0  0  0  0
    1.5811   -0.0540   -4.2513 Si  0  0  0  0  0  4  0  0  0  0  0  0
    1.8065    1.2639   -4.8461 H   0  0  0  0  0  0  0  0  0  0  0  0
    0.1193   -0.3202   -4.3732 H   0  0  0  0  0  0  0  0  0  0  0  0
    5.3116    1.2416   -2.7604 Si  0  0  0  0  0  4  0  0  0  0  0  0
    6.2656    2.2619   -2.3727 H   0  0  0  0  0  0  0  0  0  0  0  0
    4.9284    1.5257   -4.1747 H   0  0  0  0  0  0  0  0  0  0  0  0
    2.6454   -1.6393   -5.4253 Si  0  0  0  0  0  4  0  0  0  0  0  0
    3.6601   -2.2844   -4.5927 H   0  0  0  0  0  0  0  0  0  0  0  0
    1.7098   -2.6831   -5.8793 H   0  0  0  0  0  0  0  0  0  0  0  0
    3.5926   -0.7482   -7.2423 Si  0  0  0  0  0  4  0  0  0  0  0  0
    4.1558    0.5652   -6.8367 H   0  0  0  0  0  0  0  0  0  0  0  0
    2.5678   -0.5258   -8.2836 H   0  0  0  0  0  0  0  0  0  0  0  0
    6.0914   -0.8159   -2.6729 Si  0  0  0  0  0  4  0  0  0  0  0  0
    6.1078   -1.4799   -4.0006 H   0  0  0  0  0  0  0  0  0  0  0  0
    5.1836   -1.6263   -1.8321 H   0  0  0  0  0  0  0  0  0  0  0  0
    8.1204   -0.9485   -1.7961 Si  0  0  0  0  0  4  0  0  0  0  0  0
    8.0545   -0.6061   -0.3713 H   0  0  0  0  0  0  0  0  0  0  0  0
    8.5789   -2.3428   -1.9110 H   0  0  0  0  0  0  0  0  0  0  0  0
    5.1507   -2.0741   -8.0971 Si  0  0  0  0  0  4  0  0  0  0  0  0
    4.7524   -2.6695   -9.3661 H   0  0  0  0  0  0  0  0  0  0  0  0
    5.4819   -3.1569   -7.1404 H   0  0  0  0  0  0  0  0  0  0  0  0
    9.5850    0.3620   -2.7911 Si  0  0  0  0  0  4  0  0  0  0  0  0
    9.0235    1.6905   -3.0584 H   0  0  0  0  0  0  0  0  0  0  0  0
   10.7202    0.5791   -1.8484 H   0  0  0  0  0  0  0  0  0  0  0  0
    7.0081   -0.8494   -8.4520 Si  0  0  0  0  0  4  0  0  0  0  0  0
    8.2112   -1.6218   -8.1468 H   0  0  0  0  0  0  0  0  0  0  0  0
    7.0296   -0.3167   -9.8026 H   0  0  0  0  0  0  0  0  0  0  0  0
    6.9447    0.8632   -6.9878 Si  0  0  0  0  0  4  0  0  0  0  0  0
    6.1247    1.9621   -7.4991 H   0  0  0  0  0  0  0  0  0  0  0  0
    6.3028    0.3499   -5.7815 H   0  0  0  0  0  0  0  0  0  0  0  0
    8.2927    1.2988   -6.6289 H   0  0  0  0  0  0  0  0  0  0  0  0
   10.4528   -0.5638   -4.6277 Si  0  0  0  0  0  4  0  0  0  0  0  0
    9.5890   -1.5949   -5.1867 H   0  0  0  0  0  0  0  0  0  0  0  0
   10.6555    0.4829   -5.6639 H   0  0  0  0  0  0  0  0  0  0  0  0
   11.7962   -1.1273   -4.3662 H   0  0  0  0  0  0  0  0  0  0  0  0
  1  2  1  0
  1  5  1  0
  2  3  1  0
  2  4  1  0
  2  8  1  0
  5  6  1  0
  5  7  1  0
  5 11  1  0
  8  9  1  0
  8 10  1  0
  8 17  1  0
 11 12  1  0
 11 13  1  0
 11 14  1  0
 14 15  1  0
 14 16  1  0
 14 23  1  0
 17 18  1  0
 17 19  1  0
 17 20  1  0
 20 21  1  0
 20 22  1  0
 20 26  1  0
 23 24  1  0
 23 25  1  0
 23 29  1  0
 26 27  1  0
 26 28  1  0
 26 36  1  0
 29 30  1  0
 29 31  1  0
 29 32  1  0
 32 33  1  0
 32 34  1  0
 32 35  1  0
 36 37  1  0
 36 38  1  0
 36 39  1  0
M  CHG  1   1   1
M  RAD  1   1   2
M  END
$$$$
