
     RDKit          3D

 39 38  0  0  0  0  0  0  0  0999 V2000
   -0.1829    0.2168   -3.1815 S   0  0  0  0  0  2  0  0  0  0  0  0
   -1.1539    1.5561   -4.5845 Si  0  0  0  0  0  4  0  0  0  0  0  0
   -0.3025    2.7137   -4.8748 H   0  0  0  0  0  0  0  0  0  0  0  0
   -2.4480    1.9914   -4.0962 H   0  0  0  0  0  0  0  0  0  0  0  0
    1.4724   -0.6644   -4.2766 Si  0  0  0  0  0  4  0  0  0  0  0  0
    2.4249   -1.1384   -3.2611 H   0  0  0  0  0  0  0  0  0  0  0  0
    0.9218   -1.7678   -5.0520 H   0  0  0  0  0  0  0  0  0  0  0  0
   -1.4506    0.3594   -6.4703 Si  0  0  0  0  0  4  0  0  0  0  0  0
   -0.4285   -0.7058   -6.5507 H   0  0  0  0  0  0  0  0  0  0  0  0
   -2.7623   -0.2778   -6.4265 H   0  0  0  0  0  0  0  0  0  0  0  0
    2.3233    0.9432   -5.5470 Si  0  0  0  0  0  4  0  0  0  0  0  0
    1.1941    1.7058   -6.1228 H   0  0  0  0  0  0  0  0  0  0  0  0
    3.0255    1.8965   -4.6411 H   0  0  0  0  0  0  0  0  0  0  0  0
    3.7466    0.2209   -7.0451 Si  0  0  0  0  0  4  0  0  0  0  0  0
    3.7458    1.1649   -8.1985 H   0  0  0  0  0  0  0  0  0  0  0  0
    5.1156    0.2780   -6.4824 H   0  0  0  0  0  0  0  0  0  0  0  0
   -1.3153    1.6483   -8.2686 Si  0  0  0  0  0  4  0  0  0  0  0  0
   -0.5137    2.8412   -7.9431 H   0  0  0  0  0  0  0  0  0  0  0  0
   -0.6194    0.9565   -9.3625 H   0  0  0  0  0  0  0  0  0  0  0  0
   -3.3739    2.1911   -8.9333 Si  0  0  0  0  0  4  0  0  0  0  0  0
   -3.4145    2.2239  -10.4086 H   0  0  0  0  0  0  0  0  0  0  0  0
   -4.3467    1.1942   -8.4343 H   0  0  0  0  0  0  0  0  0  0  0  0
    3.3329   -1.7981   -7.8057 Si  0  0  0  0  0  4  0  0  0  0  0  0
    2.6966   -2.6820   -6.8281 H   0  0  0  0  0  0  0  0  0  0  0  0
    4.6317   -2.4393   -8.1602 H   0  0  0  0  0  0  0  0  0  0  0  0
   -3.8301    4.2354   -8.1599 Si  0  0  0  0  0  4  0  0  0  0  0  0
   -5.2789    4.3966   -7.9447 H   0  0  0  0  0  0  0  0  0  0  0  0
   -3.1893    4.4372   -6.8447 H   0  0  0  0  0  0  0  0  0  0  0  0
    2.0862   -1.7954   -9.6466 Si  0  0  0  0  0  4  0  0  0  0  0  0
    2.0779   -3.1844  -10.1764 H   0  0  0  0  0  0  0  0  0  0  0  0
    0.7100   -1.4073   -9.4002 H   0  0  0  0  0  0  0  0  0  0  0  0
    2.9572   -0.4986  -11.2331 Si  0  0  0  0  0  4  0  0  0  0  0  0
    2.8733    0.9208  -10.9095 H   0  0  0  0  0  0  0  0  0  0  0  0
    4.3350   -0.9154  -11.5552 H   0  0  0  0  0  0  0  0  0  0  0  0
    2.1592   -0.7152  -12.4628 H   0  0  0  0  0  0  0  0  0  0  0  0
   -3.0504    5.7146   -9.6442 Si  0  0  0  0  0  4  0  0  0  0  0  0
   -1.6902    5.2739  -10.0258 H   0  0  0  0  0  0  0  0  0  0  0  0
   -3.8842    5.6093  -10.8468 H   0  0  0  0  0  0  0  0  0  0  0  0
   -3.0298    7.0630   -9.0807 H   0  0  0  0  0  0  0  0  0  0  0  0
  1  2  1  0
  1  5  1  0
  2  3  1  0
  2  4  1  0
  2  8  1  0
  5  6  1  0
  5  7  1  0
  5 11  1  0
  8  9  1  0
  8 10  1  0
  8 17  1  0
 11 12  1  0
 11 13  1  0
 11 14  1  0
 14 15  1  0
 14 16  1  0
 14 23  1  0
 17 18  1  0
 17 19  1  0
 17 20  1  0
 20 21  1  0
 20 22  1  0
 20 26  1  0
 23 24  1  0
 23 25  1  0
 23 29  1  0
 26 27  1  0
 26 28  1  0
 26 36  1  0
 29 30  1  0
 29 31  1  0
 29 32  1  0
 32 33  1  0
 32 34  1  0
 32 35  1  0
 36 37  1  0
 36 38  1  0
 36 39  1  0
M  CHG  1   1   1
M  RAD  1   1   2
M  END
$$$$

     RDKit          3D

 39 38  0  0  0  0  0  0  0  0999 V2000
   -0.1829    0.2168   -3.1815 S   0  0  0  0  0  2  0  0  0  0  0  0
   -1.3905    1.3470   -4.5847 Si  0  0  0  0  0  4  0  0  0  0  0  0
   -0.7782    2.6483   -4.8696 H   0  0  0  0  0  0  0  0  0  0  0  0
   -2.7457    1.5225   -4.0999 H   0  0  0  0  0  0  0  0  0  0  0  0
    1.6148   -0.3245   -4.2729 Si  0  0  0  0  0  4  0  0  0  0  0  0
    2.6380   -0.6082   -3.2552 H   0  0  0  0  0  0  0  0  0  0  0  0
    1.2903   -1.5113   -5.0527 H   0  0  0  0  0  0  0  0  0  0  0  0
   -1.4446    0.1211   -6.4743 Si  0  0  0  0  0  4  0  0  0  0  0  0
   -0.2355   -0.7262   -6.5536 H   0  0  0  0  0  0  0  0  0  0  0  0
   -2.6084   -0.7580   -6.4364 H   0  0  0  0  0  0  0  0  0  0  0  0
    2.1424    1.4210   -5.5367 Si  0  0  0  0  0  4  0  0  0  0  0  0
    0.8887    1.9525   -6.1147 H   0  0  0  0  0  0  0  0  0  0  0  0
    2.6444    2.4895   -4.6263 H   0  0  0  0  0  0  0  0  0  0  0  0
    3.6829    0.9919   -7.0316 Si  0  0  0  0  0  4  0  0  0  0  0  0
    3.5029    1.9213   -8.1828 H   0  0  0  0  0  0  0  0  0  0  0  0
    5.0133    1.3111   -6.4641 H   0  0  0  0  0  0  0  0  0  0  0  0
   -1.5559    1.4169   -8.2692 Si  0  0  0  0  0  4  0  0  0  0  0  0
   -1.0011    2.7415   -7.9382 H   0  0  0  0  0  0  0  0  0  0  0  0
   -0.7361    0.8760   -9.3622 H   0  0  0  0  0  0  0  0  0  0  0  0
   -3.6786    1.5533   -8.9397 Si  0  0  0  0  0  4  0  0  0  0  0  0
   -3.7205    1.5819  -10.4151 H   0  0  0  0  0  0  0  0  0  0  0  0
   -4.4417    0.3856   -8.4463 H   0  0  0  0  0  0  0  0  0  0  0  0
    3.6698   -1.0668   -7.7982 Si  0  0  0  0  0  4  0  0  0  0  0  0
    3.2135   -2.0599   -6.8247 H   0  0  0  0  0  0  0  0  0  0  0  0
    5.0691   -1.4436   -8.1497 H   0  0  0  0  0  0  0  0  0  0  0  0
   -4.5239    3.4685   -8.1633 Si  0  0  0  0  0  4  0  0  0  0  0  0
   -5.9772    3.3459   -7.9527 H   0  0  0  0  0  0  0  0  0  0  0  0
   -3.9381    3.7867   -6.8454 H   0  0  0  0  0  0  0  0  0  0  0  0
    2.4515   -1.2999   -9.6433 Si  0  0  0  0  0  4  0  0  0  0  0  0
    2.7134   -2.6627  -10.1763 H   0  0  0  0  0  0  0  0  0  0  0  0
    1.0254   -1.1860   -9.4008 H   0  0  0  0  0  0  0  0  0  0  0  0
    3.0598    0.1455  -11.2239 Si  0  0  0  0  0  4  0  0  0  0  0  0
    2.7020    1.5209  -10.8974 H   0  0  0  0  0  0  0  0  0  0  0  0
    4.4931    0.0039  -11.5423 H   0  0  0  0  0  0  0  0  0  0  0  0
    2.3224   -0.2178  -12.4568 H   0  0  0  0  0  0  0  0  0  0  0  0
   -4.0406    5.0749   -9.6415 Si  0  0  0  0  0  4  0  0  0  0  0  0
   -2.6198    4.9067  -10.0194 H   0  0  0  0  0  0  0  0  0  0  0  0
   -4.8348    4.8138  -10.8472 H   0  0  0  0  0  0  0  0  0  0  0  0
   -4.2829    6.4002   -9.0749 H   0  0  0  0  0  0  0  0  0  0  0  0
  1  2  1  0
  1  5  1  0
  2  3  1  0
  2  4  1  0
  2  8  1  0
  5  6  1  0
  5  7  1  0
  5 11  1  0
  8  9  1  0
  8 10  1  0
  8 17  1  0
 11 12  1  0
 11 13  1  0
 11 14  1  0
 14 15  1  0
 14 16  1  0
 14 23  1  0
 17 18  1  0
 17 19  1  0
 17 20  1  0
 20 21  1  0
 20 22  1  0
 20 26  1  0
 23 24  1  0
 23 25  1  0
 23 29  1  0
 26 27  1  0
 26 28  1  0
 26 36  1  0
 29 30  1  0
 29 31  1  0
 29 32  1  0
 32 33  1  0
 32 34  1  0
 32 35  1  0
 36 37  1  0
 36 38  1  0
 36 39  1  0
M  CHG  1   1   1
M  RAD  1   1   2
M  END
$$$$

     RDKit          3D

 39 38  0  0  0  0  0  0  0  0999 V2000
   -0.1829    0.2168   -3.1815 S   0  0  0  0  0  2  0  0  0  0  0  0
    0.5799   -1.1828   -4.6526 Si  0  0  0  0  0  4  0  0  0  0  0  0
   -0.4154   -2.2161   -4.9543 H   0  0  0  0  0  0  0  0  0  0  0  0
    1.8215   -1.7908   -4.2153 H   0  0  0  0  0  0  0  0  0  0  0  0
   -1.7424    1.3323   -4.2010 Si  0  0  0  0  0  4  0  0  0  0  0  0
   -2.6035    1.8848   -3.1444 H   0  0  0  0  0  0  0  0  0  0  0  0
   -1.0784    2.3855   -4.9571 H   0  0  0  0  0  0  0  0  0  0  0  0
    0.9763    0.0322   -6.5080 Si  0  0  0  0  0  4  0  0  0  0  0  0
    0.0925    1.2174   -6.5260 H   0  0  0  0  0  0  0  0  0  0  0  0
    2.3576    0.5012   -6.4820 H   0  0  0  0  0  0  0  0  0  0  0  0
   -2.8171   -0.1137   -5.4958 Si  0  0  0  0  0  4  0  0  0  0  0  0
   -1.8056   -0.9893   -6.1271 H   0  0  0  0  0  0  0  0  0  0  0  0
   -3.6097   -1.0038   -4.6002 H   0  0  0  0  0  0  0  0  0  0  0  0
   -4.1760    0.8295   -6.9294 Si  0  0  0  0  0  4  0  0  0  0  0  0
   -4.3207   -0.0672   -8.1111 H   0  0  0  0  0  0  0  0  0  0  0  0
   -5.5273    0.9221   -6.3298 H   0  0  0  0  0  0  0  0  0  0  0  0
    0.6381   -1.1676   -8.3409 Si  0  0  0  0  0  4  0  0  0  0  0  0
   -0.2971   -2.2632   -8.0298 H   0  0  0  0  0  0  0  0  0  0  0  0
    0.0068   -0.3582   -9.3924 H   0  0  0  0  0  0  0  0  0  0  0  0
    2.5965   -1.9367   -9.0807 Si  0  0  0  0  0  4  0  0  0  0  0  0
    2.5965   -1.9236  -10.5569 H   0  0  0  0  0  0  0  0  0  0  0  0
    3.6974   -1.0849   -8.5790 H   0  0  0  0  0  0  0  0  0  0  0  0
   -3.5340    2.8071   -7.6385 Si  0  0  0  0  0  4  0  0  0  0  0  0
   -2.7691    3.5718   -6.6525 H   0  0  0  0  0  0  0  0  0  0  0  0
   -4.7515    3.6151   -7.9356 H   0  0  0  0  0  0  0  0  0  0  0  0
    2.8145   -4.0469   -8.3846 Si  0  0  0  0  0  4  0  0  0  0  0  0
    4.2370   -4.3927   -8.2160 H   0  0  0  0  0  0  0  0  0  0  0  0
    2.1861   -4.2134   -7.0584 H   0  0  0  0  0  0  0  0  0  0  0  0
   -2.3428    2.7141   -9.5134 Si  0  0  0  0  0  4  0  0  0  0  0  0
   -2.1752    4.1088   -9.9999 H   0  0  0  0  0  0  0  0  0  0  0  0
   -1.0197    2.1512   -9.3187 H   0  0  0  0  0  0  0  0  0  0  0  0
   -3.4066    1.5897  -11.1139 Si  0  0  0  0  0  4  0  0  0  0  0  0
   -3.4914    0.1605  -10.8371 H   0  0  0  0  0  0  0  0  0  0  0  0
   -4.7295    2.1839  -11.3834 H   0  0  0  0  0  0  0  0  0  0  0  0
   -2.6183    1.7485  -12.3586 H   0  0  0  0  0  0  0  0  0  0  0  0
    1.8211   -5.3670   -9.8911 Si  0  0  0  0  0  4  0  0  0  0  0  0
    0.5172   -4.7493  -10.2198 H   0  0  0  0  0  0  0  0  0  0  0  0
    2.6318   -5.3240  -11.1132 H   0  0  0  0  0  0  0  0  0  0  0  0
    1.6473   -6.7212   -9.3694 H   0  0  0  0  0  0  0  0  0  0  0  0
  1  2  1  0
  1  5  1  0
  2  3  1  0
  2  4  1  0
  2  8  1  0
  5  6  1  0
  5  7  1  0
  5 11  1  0
  8  9  1  0
  8 10  1  0
  8 17  1  0
 11 12  1  0
 11 13  1  0
 11 14  1  0
 14 15  1  0
 14 16  1  0
 14 23  1  0
 17 18  1  0
 17 19  1  0
 17 20  1  0
 20 21  1  0
 20 22  1  0
 20 26  1  0
 23 24  1  0
 23 25  1  0
 23 29  1  0
 26 27  1  0
 26 28  1  0
 26 36  1  0
 29 30  1  0
 29 31  1  0
 29 32  1  0
 32 33  1  0
 32 34  1  0
 32 35  1  0
 36 37  1  0
 36 38  1  0
 36 39  1  0
M  CHG  1   1   1
M  RAD  1   1   2
M  END
$$$$
