
     RDKit          3D

 39 38  0  0  0  0  0  0  0  0999 V2000
   -0.7092   -0.0507    3.0099 S   0  0  0  0  0  2  0  0  0  0  0  0
   -0.0047    0.3729    4.9276 Si  0  0  0  0  0  4  0  0  0  0  0  0
   -0.4561    1.7253    5.3384 H   0  0  0  0  0  0  0  0  0  0  0  0
    1.4846    0.4540    4.8966 H   0  0  0  0  0  0  0  0  0  0  0  0
   -2.6433   -0.7909    2.8279 Si  0  0  0  0  0  4  0  0  0  0  0  0
   -2.6147   -2.2702    2.6844 H   0  0  0  0  0  0  0  0  0  0  0  0
   -3.2487   -0.2925    1.5596 H   0  0  0  0  0  0  0  0  0  0  0  0
   -0.5558   -1.1202    6.4655 Si  0  0  0  0  0  4  0  0  0  0  0  0
   -0.9739   -2.3726    5.8677 H   0  0  0  0  0  0  0  0  0  0  0  0
   -1.6615   -0.5380    7.2789 H   0  0  0  0  0  0  0  0  0  0  0  0
   -4.0306   -0.2697    4.4664 Si  0  0  0  0  0  4  0  0  0  0  0  0
   -3.5347   -0.6350    5.7820 H   0  0  0  0  0  0  0  0  0  0  0  0
   -5.2758   -1.0662    4.2512 H   0  0  0  0  0  0  0  0  0  0  0  0
   -4.6590    1.8753    4.3802 Si  0  0  0  0  0  4  0  0  0  0  0  0
   -4.4483    2.3526    3.0096 H   0  0  0  0  0  0  0  0  0  0  0  0
   -6.0952    2.0195    4.6904 H   0  0  0  0  0  0  0  0  0  0  0  0
    1.1223   -1.4220    7.9403 Si  0  0  0  0  0  4  0  0  0  0  0  0
    1.4784   -0.1102    8.4657 H   0  0  0  0  0  0  0  0  0  0  0  0
    0.5487   -2.2525    9.0364 H   0  0  0  0  0  0  0  0  0  0  0  0
    2.8677   -2.3874    6.9970 Si  0  0  0  0  0  4  0  0  0  0  0  0
    2.5220   -3.4348    6.0568 H   0  0  0  0  0  0  0  0  0  0  0  0
    3.6837   -3.0121    8.0766 H   0  0  0  0  0  0  0  0  0  0  0  0
   -3.4744    3.1288    5.7697 Si  0  0  0  0  0  4  0  0  0  0  0  0
   -2.1541    3.4155    5.1982 H   0  0  0  0  0  0  0  0  0  0  0  0
   -4.1663    4.4428    5.8859 H   0  0  0  0  0  0  0  0  0  0  0  0
    4.1373   -0.7961    6.0547 Si  0  0  0  0  0  4  0  0  0  0  0  0
    5.5237   -1.2598    6.0679 H   0  0  0  0  0  0  0  0  0  0  0  0
    3.6822   -0.5432    4.6941 H   0  0  0  0  0  0  0  0  0  0  0  0
   -3.3278    2.2651    7.7982 Si  0  0  0  0  0  4  0  0  0  0  0  0
   -3.5892    0.8360    7.8486 H   0  0  0  0  0  0  0  0  0  0  0  0
   -4.2884    2.9208    8.7293 H   0  0  0  0  0  0  0  0  0  0  0  0
   -1.2793    2.7346    8.6141 Si  0  0  0  0  0  4  0  0  0  0  0  0
   -0.2926    2.6802    7.5342 H   0  0  0  0  0  0  0  0  0  0  0  0
   -1.2654    4.1360    9.1215 H   0  0  0  0  0  0  0  0  0  0  0  0
   -0.9384    1.8496    9.7230 H   0  0  0  0  0  0  0  0  0  0  0  0
    4.0091    1.0338    7.3316 Si  0  0  0  0  0  4  0  0  0  0  0  0
    5.2292    1.8496    7.2172 H   0  0  0  0  0  0  0  0  0  0  0  0
    3.8289    0.6222    8.7202 H   0  0  0  0  0  0  0  0  0  0  0  0
    2.8073    1.7910    6.9381 H   0  0  0  0  0  0  0  0  0  0  0  0
  1  2  1  0
  1  5  1  0
  2  3  1  0
  2  4  1  0
  2  8  1  0
  5  6  1  0
  5  7  1  0
  5 11  1  0
  8  9  1  0
  8 10  1  0
  8 17  1  0
 11 12  1  0
 11 13  1  0
 11 14  1  0
 14 15  1  0
 14 16  1  0
 14 23  1  0
 17 18  1  0
 17 19  1  0
 17 20  1  0
 20 21  1  0
 20 22  1  0
 20 26  1  0
 23 24  1  0
 23 25  1  0
 23 29  1  0
 26 27  1  0
 26 28  1  0
 26 36  1  0
 29 30  1  0
 29 31  1  0
 29 32  1  0
 32 33  1  0
 32 34  1  0
 32 35  1  0
 36 37  1  0
 36 38  1  0
 36 39  1  0
M  CHG  1   1   1
M  RAD  1   1   2
M  END
$$$$

     RDKit          3D

 39 38  0  0  0  0  0  0  0  0999 V2000
   -0.7092   -0.0507    3.0099 S   0  0  0  0  0  2  0  0  0  0  0  0
   -2.1830    0.7795    4.2816 Si  0  0  0  0  0  4  0  0  0  0  0  0
   -2.1822    0.2191    5.6282 H   0  0  0  0  0  0  0  0  0  0  0  0
   -3.5176    0.4806    3.6971 H   0  0  0  0  0  0  0  0  0  0  0  0
    0.7224   -1.2395    3.9998 Si  0  0  0  0  0  4  0  0  0  0  0  0
    0.4028   -2.6794    3.9951 H   0  0  0  0  0  0  0  0  0  0  0  0
    2.0202   -1.1138    3.2779 H   0  0  0  0  0  0  0  0  0  0  0  0
   -2.0435    3.0298    4.3582 Si  0  0  0  0  0  4  0  0  0  0  0  0
   -1.2891    3.4251    3.1376 H   0  0  0  0  0  0  0  0  0  0  0  0
   -3.3590    3.6440    4.2776 H   0  0  0  0  0  0  0  0  0  0  0  0
    1.0776   -0.6264    6.1026 Si  0  0  0  0  0  4  0  0  0  0  0  0
    2.5251   -0.6882    6.4548 H   0  0  0  0  0  0  0  0  0  0  0  0
    0.6618    0.7510    6.2666 H   0  0  0  0  0  0  0  0  0  0  0  0
   -0.1029   -1.8876    7.5145 Si  0  0  0  0  0  4  0  0  0  0  0  0
   -1.2530   -2.4344    6.7853 H   0  0  0  0  0  0  0  0  0  0  0  0
   -0.6160   -1.0343    8.6164 H   0  0  0  0  0  0  0  0  0  0  0  0
   -0.8862    3.6620    6.1241 Si  0  0  0  0  0  4  0  0  0  0  0  0
   -0.8005    2.5062    7.0571 H   0  0  0  0  0  0  0  0  0  0  0  0
    0.4985    4.0019    5.7701 H   0  0  0  0  0  0  0  0  0  0  0  0
   -1.7805    5.3558    7.2131 Si  0  0  0  0  0  4  0  0  0  0  0  0
   -0.7173    5.9714    8.0583 H   0  0  0  0  0  0  0  0  0  0  0  0
   -2.3267    6.3763    6.3330 H   0  0  0  0  0  0  0  0  0  0  0  0
    1.1159   -3.4969    8.4172 Si  0  0  0  0  0  4  0  0  0  0  0  0
    2.5467   -3.1472    8.4320 H   0  0  0  0  0  0  0  0  0  0  0  0
    0.6778   -3.7192    9.8243 H   0  0  0  0  0  0  0  0  0  0  0  0
   -3.3193    4.5570    8.6346 Si  0  0  0  0  0  4  0  0  0  0  0  0
   -2.6478    4.1369    9.8844 H   0  0  0  0  0  0  0  0  0  0  0  0
   -4.3406    5.5477    8.9457 H   0  0  0  0  0  0  0  0  0  0  0  0
    0.8711   -5.4401    7.3519 Si  0  0  0  0  0  4  0  0  0  0  0  0
    0.8308   -6.5646    8.3149 H   0  0  0  0  0  0  0  0  0  0  0  0
    2.0405   -5.6853    6.4868 H   0  0  0  0  0  0  0  0  0  0  0  0
   -1.0120   -5.5058    6.1717 Si  0  0  0  0  0  4  0  0  0  0  0  0
   -2.1310   -5.9740    7.0171 H   0  0  0  0  0  0  0  0  0  0  0  0
   -0.8340   -6.4112    5.0353 H   0  0  0  0  0  0  0  0  0  0  0  0
   -1.2695   -4.1409    5.6677 H   0  0  0  0  0  0  0  0  0  0  0  0
   -4.1914    2.7083    7.7211 Si  0  0  0  0  0  4  0  0  0  0  0  0
   -5.0871    2.0630    8.6796 H   0  0  0  0  0  0  0  0  0  0  0  0
   -4.8682    3.0368    6.4560 H   0  0  0  0  0  0  0  0  0  0  0  0
   -3.0596    1.7931    7.4513 H   0  0  0  0  0  0  0  0  0  0  0  0
  1  2  1  0
  1  5  1  0
  2  3  1  0
  2  4  1  0
  2  8  1  0
  5  6  1  0
  5  7  1  0
  5 11  1  0
  8  9  1  0
  8 10  1  0
  8 17  1  0
 11 12  1  0
 11 13  1  0
 11 14  1  0
 14 15  1  0
 14 16  1  0
 14 23  1  0
 17 18  1  0
 17 19  1  0
 17 20  1  0
 20 21  1  0
 20 22  1  0
 20 26  1  0
 23 24  1  0
 23 25  1  0
 23 29  1  0
 26 27  1  0
 26 28  1  0
 26 36  1  0
 29 30  1  0
 29 31  1  0
 29 32  1  0
 32 33  1  0
 32 34  1  0
 32 35  1  0
 36 37  1  0
 36 38  1  0
 36 39  1  0
M  CHG  1   1   1
M  RAD  1   1   2
M  END
$$$$

     RDKit          3D

 39 38  0  0  0  0  0  0  0  0999 V2000
   -0.7092   -0.0507    3.0099 S   0  0  0  0  0  2  0  0  0  0  0  0
   -2.2948   -0.9064    4.1199 Si  0  0  0  0  0  4  0  0  0  0  0  0
   -2.0456   -0.9616    5.5559 H   0  0  0  0  0  0  0  0  0  0  0  0
   -2.4708   -2.3112    3.6642 H   0  0  0  0  0  0  0  0  0  0  0  0
    0.7576    0.9034    4.1850 Si  0  0  0  0  0  4  0  0  0  0  0  0
    1.9101    0.0419    4.5092 H   0  0  0  0  0  0  0  0  0  0  0  0
    1.3160    2.0452    3.4067 H   0  0  0  0  0  0  0  0  0  0  0  0
   -4.2575    0.1209    3.6937 Si  0  0  0  0  0  4  0  0  0  0  0  0
   -4.0711    0.8134    2.3896 H   0  0  0  0  0  0  0  0  0  0  0  0
   -5.3335   -0.8430    3.5274 H   0  0  0  0  0  0  0  0  0  0  0  0
   -0.0337    1.7285    6.0868 Si  0  0  0  0  0  4  0  0  0  0  0  0
    0.5538    3.0646    6.3913 H   0  0  0  0  0  0  0  0  0  0  0  0
   -1.4639    1.9156    5.9583 H   0  0  0  0  0  0  0  0  0  0  0  0
    0.3402    0.3290    7.7836 Si  0  0  0  0  0  4  0  0  0  0  0  0
    0.4883   -1.0239    7.2349 H   0  0  0  0  0  0  0  0  0  0  0  0
   -0.8376    0.3357    8.6882 H   0  0  0  0  0  0  0  0  0  0  0  0
   -4.6718    1.6419    5.2339 Si  0  0  0  0  0  4  0  0  0  0  0  0
   -3.7798    1.3773    6.3949 H   0  0  0  0  0  0  0  0  0  0  0  0
   -4.3370    2.9929    4.7639 H   0  0  0  0  0  0  0  0  0  0  0  0
   -6.7539    1.6329    5.9546 Si  0  0  0  0  0  4  0  0  0  0  0  0
   -7.0209    2.9483    6.6044 H   0  0  0  0  0  0  0  0  0  0  0  0
   -7.7254    1.4314    4.8916 H   0  0  0  0  0  0  0  0  0  0  0  0
    2.1102    0.9122    8.9739 Si  0  0  0  0  0  4  0  0  0  0  0  0
    2.3867    2.3544    8.8596 H   0  0  0  0  0  0  0  0  0  0  0  0
    1.8655    0.5989   10.4104 H   0  0  0  0  0  0  0  0  0  0  0  0
   -6.9421    0.0916    7.5719 Si  0  0  0  0  0  4  0  0  0  0  0  0
   -6.5229    0.6903    8.8584 H   0  0  0  0  0  0  0  0  0  0  0  0
   -8.3051   -0.4073    7.6937 H   0  0  0  0  0  0  0  0  0  0  0  0
    3.9397   -0.2112    8.3726 Si  0  0  0  0  0  4  0  0  0  0  0  0
    4.7463   -0.5744    9.5604 H   0  0  0  0  0  0  0  0  0  0  0  0
    4.8024    0.6493    7.5410 H   0  0  0  0  0  0  0  0  0  0  0  0
    3.4402   -2.0963    7.3047 Si  0  0  0  0  0  4  0  0  0  0  0  0
    3.2379   -3.1957    8.2723 H   0  0  0  0  0  0  0  0  0  0  0  0
    4.5324   -2.4328    6.3900 H   0  0  0  0  0  0  0  0  0  0  0  0
    2.2109   -1.8523    6.5220 H   0  0  0  0  0  0  0  0  0  0  0  0
   -5.4842   -1.5466    7.1202 Si  0  0  0  0  0  4  0  0  0  0  0  0
   -5.4574   -2.4990    8.2291 H   0  0  0  0  0  0  0  0  0  0  0  0
   -5.8211   -2.1883    5.8391 H   0  0  0  0  0  0  0  0  0  0  0  0
   -4.1506   -0.9122    7.0179 H   0  0  0  0  0  0  0  0  0  0  0  0
  1  2  1  0
  1  5  1  0
  2  3  1  0
  2  4  1  0
  2  8  1  0
  5  6  1  0
  5  7  1  0
  5 11  1  0
  8  9  1  0
  8 10  1  0
  8 17  1  0
 11 12  1  0
 11 13  1  0
 11 14  1  0
 14 15  1  0
 14 16  1  0
 14 23  1  0
 17 18  1  0
 17 19  1  0
 17 20  1  0
 20 21  1  0
 20 22  1  0
 20 26  1  0
 23 24  1  0
 23 25  1  0
 23 29  1  0
 26 27  1  0
 26 28  1  0
 26 36  1  0
 29 30  1  0
 29 31  1  0
 29 32  1  0
 32 33  1  0
 32 34  1  0
 32 35  1  0
 36 37  1  0
 36 38  1  0
 36 39  1  0
M  CHG  1   1   1
M  RAD  1   1   2
M  END
$$$$

     RDKit          3D

 39 38  0  0  0  0  0  0  0  0999 V2000
   -0.7092   -0.0507    3.0099 S   0  0  0  0  0  2  0  0  0  0  0  0
   -1.9367    1.6097    3.6467 Si  0  0  0  0  0  4  0  0  0  0  0  0
   -1.3412    2.3327    4.7521 H   0  0  0  0  0  0  0  0  0  0  0  0
   -2.0162    2.5336    2.4863 H   0  0  0  0  0  0  0  0  0  0  0  0
   -0.2706   -1.2164    4.7752 Si  0  0  0  0  0  4  0  0  0  0  0  0
   -1.4463   -1.9968    5.1380 H   0  0  0  0  0  0  0  0  0  0  0  0
    0.9161   -2.0467    4.5878 H   0  0  0  0  0  0  0  0  0  0  0  0
   -3.9987    0.8916    4.0819 Si  0  0  0  0  0  4  0  0  0  0  0  0
   -4.9702    1.9632    3.9212 H   0  0  0  0  0  0  0  0  0  0  0  0
   -4.3191   -0.1311    3.0448 H   0  0  0  0  0  0  0  0  0  0  0  0
    0.1994    0.2441    6.4162 Si  0  0  0  0  0  4  0  0  0  0  0  0
   -0.9386    1.1038    6.6533 H   0  0  0  0  0  0  0  0  0  0  0  0
    0.5578   -0.5180    7.6095 H   0  0  0  0  0  0  0  0  0  0  0  0
    1.9347    1.4830    5.6883 Si  0  0  0  0  0  4  0  0  0  0  0  0
    2.1420    2.6522    6.5252 H   0  0  0  0  0  0  0  0  0  0  0  0
    1.6320    1.9259    4.3364 H   0  0  0  0  0  0  0  0  0  0  0  0
   -4.1733   -0.0610    6.0577 Si  0  0  0  0  0  4  0  0  0  0  0  0
   -2.9584   -0.7288    6.5066 H   0  0  0  0  0  0  0  0  0  0  0  0
   -5.2270   -1.1129    5.9703 H   0  0  0  0  0  0  0  0  0  0  0  0
   -4.8344    1.3537    7.6464 Si  0  0  0  0  0  4  0  0  0  0  0  0
   -6.1223    1.9757    7.3406 H   0  0  0  0  0  0  0  0  0  0  0  0
   -5.0463    0.5435    8.8800 H   0  0  0  0  0  0  0  0  0  0  0  0
    3.7261    0.1221    5.7322 Si  0  0  0  0  0  4  0  0  0  0  0  0
    4.6793    0.5201    4.7104 H   0  0  0  0  0  0  0  0  0  0  0  0
    3.2717   -1.2583    5.4281 H   0  0  0  0  0  0  0  0  0  0  0  0
   -3.3083    2.8825    8.1062 Si  0  0  0  0  0  4  0  0  0  0  0  0
   -2.4593    3.1026    6.9209 H   0  0  0  0  0  0  0  0  0  0  0  0
   -2.3892    2.3892    9.1720 H   0  0  0  0  0  0  0  0  0  0  0  0
    4.6124    0.2393    7.7636 Si  0  0  0  0  0  4  0  0  0  0  0  0
    4.6490    1.6424    8.1718 H   0  0  0  0  0  0  0  0  0  0  0  0
    6.0003   -0.2701    7.6785 H   0  0  0  0  0  0  0  0  0  0  0  0
    3.5124   -0.9789    9.2444 Si  0  0  0  0  0  4  0  0  0  0  0  0
    2.3639   -1.6812    8.6846 H   0  0  0  0  0  0  0  0  0  0  0  0
    2.9921   -0.0934   10.3165 H   0  0  0  0  0  0  0  0  0  0  0  0
    4.3978   -1.9516    9.9269 H   0  0  0  0  0  0  0  0  0  0  0  0
   -4.2082    4.7747    8.8429 Si  0  0  0  0  0  4  0  0  0  0  0  0
   -4.3820    4.6822   10.3015 H   0  0  0  0  0  0  0  0  0  0  0  0
   -5.5040    4.9594    8.1702 H   0  0  0  0  0  0  0  0  0  0  0  0
   -3.3270    5.8991    8.5077 H   0  0  0  0  0  0  0  0  0  0  0  0
  1  2  1  0
  1  5  1  0
  2  3  1  0
  2  4  1  0
  2  8  1  0
  5  6  1  0
  5  7  1  0
  5 11  1  0
  8  9  1  0
  8 10  1  0
  8 17  1  0
 11 12  1  0
 11 13  1  0
 11 14  1  0
 14 15  1  0
 14 16  1  0
 14 23  1  0
 17 18  1  0
 17 19  1  0
 17 20  1  0
 20 21  1  0
 20 22  1  0
 20 26  1  0
 23 24  1  0
 23 25  1  0
 23 29  1  0
 26 27  1  0
 26 28  1  0
 26 36  1  0
 29 30  1  0
 29 31  1  0
 29 32  1  0
 32 33  1  0
 32 34  1  0
 32 35  1  0
 36 37  1  0
 36 38  1  0
 36 39  1  0
M  CHG  1   1   1
M  RAD  1   1   2
M  END
$$$$

     RDKit          3D

 39 38  0  0  0  0  0  0  0  0999 V2000
   -0.7092   -0.0507    3.0099 S   0  0  0  0  0  2  0  0  0  0  0  0
   -1.4066   -2.0119    3.4476 Si  0  0  0  0  0  4  0  0  0  0  0  0
   -2.6710   -2.2643    2.7302 H   0  0  0  0  0  0  0  0  0  0  0  0
   -0.4322   -2.9945    2.9493 H   0  0  0  0  0  0  0  0  0  0  0  0
   -1.9868    1.4218    3.8932 Si  0  0  0  0  0  4  0  0  0  0  0  0
   -2.0319    1.1478    5.3455 H   0  0  0  0  0  0  0  0  0  0  0  0
   -1.3898    2.7466    3.7274 H   0  0  0  0  0  0  0  0  0  0  0  0
   -1.7549   -2.3172    5.6179 Si  0  0  0  0  0  4  0  0  0  0  0  0
   -2.7540   -1.3487    6.0999 H   0  0  0  0  0  0  0  0  0  0  0  0
   -2.3396   -3.6655    5.7925 H   0  0  0  0  0  0  0  0  0  0  0  0
   -4.0496    1.3364    3.0050 Si  0  0  0  0  0  4  0  0  0  0  0  0
   -4.0575    0.6551    1.7253 H   0  0  0  0  0  0  0  0  0  0  0  0
   -4.5194    2.7348    2.9095 H   0  0  0  0  0  0  0  0  0  0  0  0
   -5.3841    0.3085    4.5021 Si  0  0  0  0  0  4  0  0  0  0  0  0
   -6.7222    0.1086    3.9729 H   0  0  0  0  0  0  0  0  0  0  0  0
   -4.7708   -1.0267    4.7380 H   0  0  0  0  0  0  0  0  0  0  0  0
    0.1351   -2.1142    6.7728 Si  0  0  0  0  0  4  0  0  0  0  0  0
    0.9327   -0.9986    6.2439 H   0  0  0  0  0  0  0  0  0  0  0  0
    0.9163   -3.3692    6.6684 H   0  0  0  0  0  0  0  0  0  0  0  0
   -0.2667   -1.7837    8.9490 Si  0  0  0  0  0  4  0  0  0  0  0  0
   -0.4683   -3.0633    9.6584 H   0  0  0  0  0  0  0  0  0  0  0  0
    0.8974   -1.0560    9.5080 H   0  0  0  0  0  0  0  0  0  0  0  0
   -5.3284    1.4802    6.3707 Si  0  0  0  0  0  4  0  0  0  0  0  0
   -4.3909    0.8817    7.3033 H   0  0  0  0  0  0  0  0  0  0  0  0
   -4.8862    2.8738    6.0963 H   0  0  0  0  0  0  0  0  0  0  0  0
   -2.0436   -0.4514    9.2094 Si  0  0  0  0  0  4  0  0  0  0  0  0
   -1.8494    0.5001   10.3162 H   0  0  0  0  0  0  0  0  0  0  0  0
   -2.1450    0.3680    7.9767 H   0  0  0  0  0  0  0  0  0  0  0  0
   -7.3183    1.6105    7.3600 Si  0  0  0  0  0  4  0  0  0  0  0  0
   -7.6513    0.3136    8.0083 H   0  0  0  0  0  0  0  0  0  0  0  0
   -8.3769    2.0198    6.4576 H   0  0  0  0  0  0  0  0  0  0  0  0
   -7.0840    3.0901    9.0491 Si  0  0  0  0  0  4  0  0  0  0  0  0
   -6.8829    4.4156    8.4632 H   0  0  0  0  0  0  0  0  0  0  0  0
   -8.1996    3.0209    9.9727 H   0  0  0  0  0  0  0  0  0  0  0  0
   -5.8003    2.7280    9.7125 H   0  0  0  0  0  0  0  0  0  0  0  0
   -3.8972   -1.6190    9.5781 Si  0  0  0  0  0  4  0  0  0  0  0  0
   -4.7070   -1.7798    8.3527 H   0  0  0  0  0  0  0  0  0  0  0  0
   -4.7821   -0.9529   10.5640 H   0  0  0  0  0  0  0  0  0  0  0  0
   -3.5729   -2.9419   10.1495 H   0  0  0  0  0  0  0  0  0  0  0  0
  1  2  1  0
  1  5  1  0
  2  3  1  0
  2  4  1  0
  2  8  1  0
  5  6  1  0
  5  7  1  0
  5 11  1  0
  8  9  1  0
  8 10  1  0
  8 17  1  0
 11 12  1  0
 11 13  1  0
 11 14  1  0
 14 15  1  0
 14 16  1  0
 14 23  1  0
 17 18  1  0
 17 19  1  0
 17 20  1  0
 20 21  1  0
 20 22  1  0
 20 26  1  0
 23 24  1  0
 23 25  1  0
 23 29  1  0
 26 27  1  0
 26 28  1  0
 26 36  1  0
 29 30  1  0
 29 31  1  0
 29 32  1  0
 32 33  1  0
 32 34  1  0
 32 35  1  0
 36 37  1  0
 36 38  1  0
 36 39  1  0
M  CHG  1   1   1
M  RAD  1   1   2
M  END
$$$$
