
     RDKit          3D

 39 38  0  0  0  0  0  0  0  0999 V2000
    0.1146    0.0278   -3.1982 S   0  0  0  0  0  2  0  0  0  0  0  0
   -0.9470   -0.4579   -5.0273 Si  0  0  0  0  0  4  0  0  0  0  0  0
   -2.2937    0.0706   -4.9364 H   0  0  0  0  0  0  0  0  0  0  0  0
   -1.0119   -1.9213   -5.2102 H   0  0  0  0  0  0  0  0  0  0  0  0
    2.2042   -0.3790   -3.6267 Si  0  0  0  0  0  4  0  0  0  0  0  0
    2.6237    0.6467   -4.5990 H   0  0  0  0  0  0  0  0  0  0  0  0
    2.9849   -0.2092   -2.3894 H   0  0  0  0  0  0  0  0  0  0  0  0
    0.2216    0.5030   -6.6912 Si  0  0  0  0  0  4  0  0  0  0  0  0
    1.6586    0.2645   -6.4008 H   0  0  0  0  0  0  0  0  0  0  0  0
   -0.0011    1.9388   -6.5977 H   0  0  0  0  0  0  0  0  0  0  0  0
    2.3133   -2.4287   -4.4391 Si  0  0  0  0  0  4  0  0  0  0  0  0
    1.1150   -2.6655   -5.2906 H   0  0  0  0  0  0  0  0  0  0  0  0
    2.2400   -3.3863   -3.3374 H   0  0  0  0  0  0  0  0  0  0  0  0
    4.1011   -2.7544   -5.7177 Si  0  0  0  0  0  4  0  0  0  0  0  0
    5.3348   -2.5039   -4.9465 H   0  0  0  0  0  0  0  0  0  0  0  0
    4.0384   -1.8559   -6.8599 H   0  0  0  0  0  0  0  0  0  0  0  0
   -0.3090   -0.3520   -8.6590 Si  0  0  0  0  0  4  0  0  0  0  0  0
    0.9092   -0.9292   -9.2913 H   0  0  0  0  0  0  0  0  0  0  0  0
   -0.7555    0.7449   -9.5355 H   0  0  0  0  0  0  0  0  0  0  0  0
   -1.8614   -1.9269   -8.5234 Si  0  0  0  0  0  4  0  0  0  0  0  0
   -3.0566   -1.3575   -7.8598 H   0  0  0  0  0  0  0  0  0  0  0  0
   -1.3313   -3.0328   -7.7196 H   0  0  0  0  0  0  0  0  0  0  0  0
    4.0419   -4.8756   -6.4320 Si  0  0  0  0  0  4  0  0  0  0  0  0
    4.6006   -5.7994   -5.4531 H   0  0  0  0  0  0  0  0  0  0  0  0
    2.6029   -5.2109   -6.6277 H   0  0  0  0  0  0  0  0  0  0  0  0
   -2.3591   -2.6011  -10.5987 Si  0  0  0  0  0  4  0  0  0  0  0  0
   -3.8170   -2.7148  -10.7535 H   0  0  0  0  0  0  0  0  0  0  0  0
   -1.8508   -1.6381  -11.6004 H   0  0  0  0  0  0  0  0  0  0  0  0
    5.0211   -5.0744   -8.4270 Si  0  0  0  0  0  4  0  0  0  0  0  0
    6.3989   -4.5719   -8.4101 H   0  0  0  0  0  0  0  0  0  0  0  0
    4.9953   -6.4916   -8.7953 H   0  0  0  0  0  0  0  0  0  0  0  0
    3.8550   -3.9497   -9.9540 Si  0  0  0  0  0  4  0  0  0  0  0  0
    3.6884   -4.7401  -11.1771 H   0  0  0  0  0  0  0  0  0  0  0  0
    2.5428   -3.6406   -9.4138 H   0  0  0  0  0  0  0  0  0  0  0  0
    4.5354   -2.6709  -10.2401 H   0  0  0  0  0  0  0  0  0  0  0  0
   -1.4114   -4.5825  -11.0289 Si  0  0  0  0  0  4  0  0  0  0  0  0
   -1.8034   -5.5832  -10.0332 H   0  0  0  0  0  0  0  0  0  0  0  0
   -1.8290   -4.9763  -12.3824 H   0  0  0  0  0  0  0  0  0  0  0  0
    0.0501   -4.3861  -11.0477 H   0  0  0  0  0  0  0  0  0  0  0  0
  1  2  1  0
  1  5  1  0
  2  3  1  0
  2  4  1  0
  2  8  1  0
  5  6  1  0
  5  7  1  0
  5 11  1  0
  8  9  1  0
  8 10  1  0
  8 17  1  0
 11 12  1  0
 11 13  1  0
 11 14  1  0
 14 15  1  0
 14 16  1  0
 14 23  1  0
 17 18  1  0
 17 19  1  0
 17 20  1  0
 20 21  1  0
 20 22  1  0
 20 26  1  0
 23 24  1  0
 23 25  1  0
 23 29  1  0
 26 27  1  0
 26 28  1  0
 26 36  1  0
 29 30  1  0
 29 31  1  0
 29 32  1  0
 32 33  1  0
 32 34  1  0
 32 35  1  0
 36 37  1  0
 36 38  1  0
 36 39  1  0
M  CHG  1   1   1
M  RAD  1   1   2
M  END
$$$$
