
     RDKit          3D

 39 38  0  0  0  0  0  0  0  0999 V2000
   -0.0782    0.1639    3.1726 S   0  0  0  0  0  2  0  0  0  0  0  0
   -0.2290    2.1089    3.8996 Si  0  0  0  0  0  4  0  0  0  0  0  0
   -1.3046    2.3424    4.8659 H   0  0  0  0  0  0  0  0  0  0  0  0
   -0.5188    3.0185    2.7506 H   0  0  0  0  0  0  0  0  0  0  0  0
   -0.5971   -1.4157    4.3999 Si  0  0  0  0  0  4  0  0  0  0  0  0
    0.4842   -2.4419    4.4126 H   0  0  0  0  0  0  0  0  0  0  0  0
   -1.7853   -2.1247    3.8430 H   0  0  0  0  0  0  0  0  0  0  0  0
    1.6683    2.8556    4.8253 Si  0  0  0  0  0  4  0  0  0  0  0  0
    2.3571    3.8126    3.9495 H   0  0  0  0  0  0  0  0  0  0  0  0
    2.5996    1.7048    4.9865 H   0  0  0  0  0  0  0  0  0  0  0  0
   -1.0637   -0.9143    6.5037 Si  0  0  0  0  0  4  0  0  0  0  0  0
   -1.5593   -2.1520    7.1625 H   0  0  0  0  0  0  0  0  0  0  0  0
    0.2043   -0.5814    7.1872 H   0  0  0  0  0  0  0  0  0  0  0  0
   -2.5799    0.6540    6.7074 Si  0  0  0  0  0  4  0  0  0  0  0  0
   -3.1982    0.8944    5.3778 H   0  0  0  0  0  0  0  0  0  0  0  0
   -1.9179    1.8987    7.1879 H   0  0  0  0  0  0  0  0  0  0  0  0
    1.2907    3.8537    6.7719 Si  0  0  0  0  0  4  0  0  0  0  0  0
   -0.0360    4.4389    6.8669 H   0  0  0  0  0  0  0  0  0  0  0  0
    2.2785    4.9472    6.9577 H   0  0  0  0  0  0  0  0  0  0  0  0
    1.6182    2.3949    8.4295 Si  0  0  0  0  0  4  0  0  0  0  0  0
    0.4550    1.4654    8.4157 H   0  0  0  0  0  0  0  0  0  0  0  0
    2.8775    1.6998    8.2304 H   0  0  0  0  0  0  0  0  0  0  0  0
   -4.2050    0.1680    8.1312 Si  0  0  0  0  0  4  0  0  0  0  0  0
   -3.6633    0.3193    9.5117 H   0  0  0  0  0  0  0  0  0  0  0  0
   -4.7889   -1.1402    7.9169 H   0  0  0  0  0  0  0  0  0  0  0  0
    1.6093    3.4045   10.4194 Si  0  0  0  0  0  4  0  0  0  0  0  0
    1.2226    2.3731   11.4206 H   0  0  0  0  0  0  0  0  0  0  0  0
    2.9323    3.9062   10.7915 H   0  0  0  0  0  0  0  0  0  0  0  0
   -5.7439    1.8001    7.9023 Si  0  0  0  0  0  4  0  0  0  0  0  0
   -6.5316    1.5281    6.6937 H   0  0  0  0  0  0  0  0  0  0  0  0
   -6.5645    1.9237    9.0911 H   0  0  0  0  0  0  0  0  0  0  0  0
   -4.5922    3.6934    7.5057 Si  0  0  0  0  0  4  0  0  0  0  0  0
   -3.4550    3.3002    6.6270 H   0  0  0  0  0  0  0  0  0  0  0  0
   -5.3881    4.6532    6.7657 H   0  0  0  0  0  0  0  0  0  0  0  0
   -4.0114    4.2304    8.7279 H   0  0  0  0  0  0  0  0  0  0  0  0
    0.0466    4.9747   10.4402 Si  0  0  0  0  0  4  0  0  0  0  0  0
   -1.2594    4.3030   10.6782 H   0  0  0  0  0  0  0  0  0  0  0  0
    0.3057    5.9062   11.5443 H   0  0  0  0  0  0  0  0  0  0  0  0
    0.0273    5.6387    9.1360 H   0  0  0  0  0  0  0  0  0  0  0  0
  1  2  1  0
  1  5  1  0
  2  3  1  0
  2  4  1  0
  2  8  1  0
  5  6  1  0
  5  7  1  0
  5 11  1  0
  8  9  1  0
  8 10  1  0
  8 17  1  0
 11 12  1  0
 11 13  1  0
 11 14  1  0
 14 15  1  0
 14 16  1  0
 14 23  1  0
 17 18  1  0
 17 19  1  0
 17 20  1  0
 20 21  1  0
 20 22  1  0
 20 26  1  0
 23 24  1  0
 23 25  1  0
 23 29  1  0
 26 27  1  0
 26 28  1  0
 26 36  1  0
 29 30  1  0
 29 31  1  0
 29 32  1  0
 32 33  1  0
 32 34  1  0
 32 35  1  0
 36 37  1  0
 36 38  1  0
 36 39  1  0
M  CHG  1   1   1
M  RAD  1   1   2
M  END
$$$$

     RDKit          3D

 39 38  0  0  0  0  0  0  0  0999 V2000
   -0.0782    0.1639    3.1726 S   0  0  0  0  0  2  0  0  0  0  0  0
    0.4998   -1.3583    4.6027 Si  0  0  0  0  0  4  0  0  0  0  0  0
    0.3398   -2.6780    4.0161 H   0  0  0  0  0  0  0  0  0  0  0  0
    1.9359   -1.1268    4.8861 H   0  0  0  0  0  0  0  0  0  0  0  0
   -0.1669    2.0256    4.2737 Si  0  0  0  0  0  4  0  0  0  0  0  0
   -0.6059    3.0538    3.3215 H   0  0  0  0  0  0  0  0  0  0  0  0
   -1.2169    1.8660    5.2989 H   0  0  0  0  0  0  0  0  0  0  0  0
   -0.7527   -1.0628    6.4216 Si  0  0  0  0  0  4  0  0  0  0  0  0
    0.1759   -0.8984    7.5680 H   0  0  0  0  0  0  0  0  0  0  0  0
   -1.5904    0.1317    6.3358 H   0  0  0  0  0  0  0  0  0  0  0  0
    1.8159    2.4773    5.1640 Si  0  0  0  0  0  4  0  0  0  0  0  0
    2.2105    3.8340    4.7277 H   0  0  0  0  0  0  0  0  0  0  0  0
    2.7962    1.4797    4.6751 H   0  0  0  0  0  0  0  0  0  0  0  0
    1.7931    2.3628    7.3802 Si  0  0  0  0  0  4  0  0  0  0  0  0
    1.5484    3.7076    7.9227 H   0  0  0  0  0  0  0  0  0  0  0  0
    0.7808    1.4585    7.8996 H   0  0  0  0  0  0  0  0  0  0  0  0
   -1.9792   -2.8974    6.8516 Si  0  0  0  0  0  4  0  0  0  0  0  0
   -2.6532   -2.6593    8.1504 H   0  0  0  0  0  0  0  0  0  0  0  0
   -2.9160   -3.1859    5.7858 H   0  0  0  0  0  0  0  0  0  0  0  0
   -0.5009   -4.5768    7.1360 Si  0  0  0  0  0  4  0  0  0  0  0  0
   -1.1598   -5.7792    7.6189 H   0  0  0  0  0  0  0  0  0  0  0  0
    0.2029   -4.8137    5.8718 H   0  0  0  0  0  0  0  0  0  0  0  0
    3.7929    1.6597    8.0835 Si  0  0  0  0  0  4  0  0  0  0  0  0
    4.3668    0.7191    7.1077 H   0  0  0  0  0  0  0  0  0  0  0  0
    4.6886    2.8265    8.1703 H   0  0  0  0  0  0  0  0  0  0  0  0
    0.9734   -3.8050    8.6608 Si  0  0  0  0  0  4  0  0  0  0  0  0
    1.6907   -4.9046    9.2809 H   0  0  0  0  0  0  0  0  0  0  0  0
    1.8618   -2.8270    8.0106 H   0  0  0  0  0  0  0  0  0  0  0  0
    3.6491    0.7207   10.1117 Si  0  0  0  0  0  4  0  0  0  0  0  0
    2.2367    0.7872   10.5380 H   0  0  0  0  0  0  0  0  0  0  0  0
    4.4540    1.4855   11.0890 H   0  0  0  0  0  0  0  0  0  0  0  0
    4.3567   -1.4078   10.0475 Si  0  0  0  0  0  4  0  0  0  0  0  0
    3.2941   -2.3031   10.5466 H   0  0  0  0  0  0  0  0  0  0  0  0
    4.7054   -1.7363    8.6565 H   0  0  0  0  0  0  0  0  0  0  0  0
    5.5456   -1.5670   10.9136 H   0  0  0  0  0  0  0  0  0  0  0  0
   -0.2568   -2.7079   10.1951 Si  0  0  0  0  0  4  0  0  0  0  0  0
   -1.2308   -1.8325    9.5134 H   0  0  0  0  0  0  0  0  0  0  0  0
   -1.0210   -3.7327   10.9381 H   0  0  0  0  0  0  0  0  0  0  0  0
    0.6207   -1.9399   11.0650 H   0  0  0  0  0  0  0  0  0  0  0  0
  1  2  1  0
  1  5  1  0
  2  3  1  0
  2  4  1  0
  2  8  1  0
  5  6  1  0
  5  7  1  0
  5 11  1  0
  8  9  1  0
  8 10  1  0
  8 17  1  0
 11 12  1  0
 11 13  1  0
 11 14  1  0
 14 15  1  0
 14 16  1  0
 14 23  1  0
 17 18  1  0
 17 19  1  0
 17 20  1  0
 20 21  1  0
 20 22  1  0
 20 26  1  0
 23 24  1  0
 23 25  1  0
 23 29  1  0
 26 27  1  0
 26 28  1  0
 26 36  1  0
 29 30  1  0
 29 31  1  0
 29 32  1  0
 32 33  1  0
 32 34  1  0
 32 35  1  0
 36 37  1  0
 36 38  1  0
 36 39  1  0
M  CHG  1   1   1
M  RAD  1   1   2
M  END
$$$$

     RDKit          3D

 39 38  0  0  0  0  0  0  0  0999 V2000
   -0.0782    0.1639    3.1726 S   0  0  0  0  0  2  0  0  0  0  0  0
   -1.6073   -0.5687    4.5221 Si  0  0  0  0  0  4  0  0  0  0  0  0
   -2.9061   -0.5262    3.8720 H   0  0  0  0  0  0  0  0  0  0  0  0
   -1.2564   -1.9800    4.8078 H   0  0  0  0  0  0  0  0  0  0  0  0
    1.7112    0.4139    4.3650 Si  0  0  0  0  0  4  0  0  0  0  0  0
    2.7390    0.9571    3.4674 H   0  0  0  0  0  0  0  0  0  0  0  0
    1.4044    1.4334    5.3875 H   0  0  0  0  0  0  0  0  0  0  0  0
   -1.5192    0.6862    6.3611 Si  0  0  0  0  0  4  0  0  0  0  0  0
   -1.3246   -0.2353    7.5084 H   0  0  0  0  0  0  0  0  0  0  0  0
   -0.4057    1.6325    6.3395 H   0  0  0  0  0  0  0  0  0  0  0  0
    2.3028   -1.5275    5.2643 Si  0  0  0  0  0  4  0  0  0  0  0  0
    3.7101   -1.7892    4.8932 H   0  0  0  0  0  0  0  0  0  0  0  0
    1.4264   -2.5912    4.7206 H   0  0  0  0  0  0  0  0  0  0  0  0
    2.0789   -1.5394    7.4722 Si  0  0  0  0  0  4  0  0  0  0  0  0
    3.3669   -1.1762    8.0820 H   0  0  0  0  0  0  0  0  0  0  0  0
    1.0597   -0.6214    7.9525 H   0  0  0  0  0  0  0  0  0  0  0  0
   -3.4794    1.7317    6.7073 Si  0  0  0  0  0  4  0  0  0  0  0  0
   -3.3689    2.4109    8.0205 H   0  0  0  0  0  0  0  0  0  0  0  0
   -3.8021    2.6489    5.6344 H   0  0  0  0  0  0  0  0  0  0  0  0
   -5.0248    0.1003    6.8993 Si  0  0  0  0  0  4  0  0  0  0  0  0
   -6.3057    0.6389    7.3261 H   0  0  0  0  0  0  0  0  0  0  0  0
   -5.1329   -0.6089    5.6205 H   0  0  0  0  0  0  0  0  0  0  0  0
    1.5329   -3.6034    8.1276 Si  0  0  0  0  0  4  0  0  0  0  0  0
    0.6987   -4.2520    7.1030 H   0  0  0  0  0  0  0  0  0  0  0  0
    2.7727   -4.3874    8.2665 H   0  0  0  0  0  0  0  0  0  0  0  0
   -4.1934   -1.3120    8.4512 Si  0  0  0  0  0  4  0  0  0  0  0  0
   -5.2499   -2.1352    9.0118 H   0  0  0  0  0  0  0  0  0  0  0  0
   -3.1061   -2.0983    7.8447 H   0  0  0  0  0  0  0  0  0  0  0  0
    0.4869   -3.5696   10.1077 Si  0  0  0  0  0  4  0  0  0  0  0  0
    0.4001   -2.1618   10.5455 H   0  0  0  0  0  0  0  0  0  0  0  0
    1.2753   -4.3102   11.1166 H   0  0  0  0  0  0  0  0  0  0  0  0
   -1.5604   -4.4718    9.9339 Si  0  0  0  0  0  4  0  0  0  0  0  0
   -2.5744   -3.5027   10.3947 H   0  0  0  0  0  0  0  0  0  0  0  0
   -1.7867   -4.8346    8.5263 H   0  0  0  0  0  0  0  0  0  0  0  0
   -1.6495   -5.6796   10.7838 H   0  0  0  0  0  0  0  0  0  0  0  0
   -3.2923   -0.0014   10.0455 Si  0  0  0  0  0  4  0  0  0  0  0  0
   -2.4798    1.0572    9.4139 H   0  0  0  0  0  0  0  0  0  0  0  0
   -4.4192    0.6559   10.7415 H   0  0  0  0  0  0  0  0  0  0  0  0
   -2.4888   -0.8128   10.9469 H   0  0  0  0  0  0  0  0  0  0  0  0
  1  2  1  0
  1  5  1  0
  2  3  1  0
  2  4  1  0
  2  8  1  0
  5  6  1  0
  5  7  1  0
  5 11  1  0
  8  9  1  0
  8 10  1  0
  8 17  1  0
 11 12  1  0
 11 13  1  0
 11 14  1  0
 14 15  1  0
 14 16  1  0
 14 23  1  0
 17 18  1  0
 17 19  1  0
 17 20  1  0
 20 21  1  0
 20 22  1  0
 20 26  1  0
 23 24  1  0
 23 25  1  0
 23 29  1  0
 26 27  1  0
 26 28  1  0
 26 36  1  0
 29 30  1  0
 29 31  1  0
 29 32  1  0
 32 33  1  0
 32 34  1  0
 32 35  1  0
 36 37  1  0
 36 38  1  0
 36 39  1  0
M  CHG  1   1   1
M  RAD  1   1   2
M  END
$$$$

     RDKit          3D

 39 38  0  0  0  0  0  0  0  0999 V2000
   -0.0782    0.1639    3.1726 S   0  0  0  0  0  2  0  0  0  0  0  0
   -0.8494   -1.3106    4.5609 Si  0  0  0  0  0  4  0  0  0  0  0  0
   -1.9167   -2.0724    3.9349 H   0  0  0  0  0  0  0  0  0  0  0  0
    0.2820   -2.2201    4.8595 H   0  0  0  0  0  0  0  0  0  0  0  0
    1.2085    1.4667    4.3273 Si  0  0  0  0  0  4  0  0  0  0  0  0
    1.6964    2.4985    3.4030 H   0  0  0  0  0  0  0  0  0  0  0  0
    0.3569    2.1193    5.3411 H   0  0  0  0  0  0  0  0  0  0  0  0
   -1.5218   -0.2141    6.3803 Si  0  0  0  0  0  4  0  0  0  0  0  0
   -0.8041   -0.8071    7.5364 H   0  0  0  0  0  0  0  0  0  0  0  0
   -1.2021    1.2108    6.3245 H   0  0  0  0  0  0  0  0  0  0  0  0
    2.8553    0.2924    5.2421 Si  0  0  0  0  0  4  0  0  0  0  0  0
    4.1343    0.9216    4.8481 H   0  0  0  0  0  0  0  0  0  0  0  0
    2.7918   -1.0964    4.7300 H   0  0  0  0  0  0  0  0  0  0  0  0
    2.6986    0.1980    7.4539 Si  0  0  0  0  0  4  0  0  0  0  0  0
    3.5129    1.2764    8.0340 H   0  0  0  0  0  0  0  0  0  0  0  0
    1.3355    0.3287    7.9405 H   0  0  0  0  0  0  0  0  0  0  0  0
   -3.7141   -0.5505    6.7489 Si  0  0  0  0  0  4  0  0  0  0  0  0
   -4.0256    0.0879    8.0502 H   0  0  0  0  0  0  0  0  0  0  0  0
   -4.5310   -0.0363    5.6697 H   0  0  0  0  0  0  0  0  0  0  0  0
   -3.9653   -2.7785    6.9928 Si  0  0  0  0  0  4  0  0  0  0  0  0
   -5.3095   -3.1092    7.4363 H   0  0  0  0  0  0  0  0  0  0  0  0
   -3.6335   -3.4386    5.7263 H   0  0  0  0  0  0  0  0  0  0  0  0
    3.5090   -1.7640    8.1481 Si  0  0  0  0  0  4  0  0  0  0  0  0
    3.2261   -2.8067    7.1485 H   0  0  0  0  0  0  0  0  0  0  0  0
    4.9719   -1.6411    8.2743 H   0  0  0  0  0  0  0  0  0  0  0  0
   -2.4410   -3.3713    8.5482 Si  0  0  0  0  0  4  0  0  0  0  0  0
   -2.7855   -4.6516    9.1401 H   0  0  0  0  0  0  0  0  0  0  0  0
   -1.1035   -3.3588    7.9322 H   0  0  0  0  0  0  0  0  0  0  0  0
    2.6667   -2.3216   10.1469 Si  0  0  0  0  0  4  0  0  0  0  0  0
    1.7531   -1.2397   10.5667 H   0  0  0  0  0  0  0  0  0  0  0  0
    3.7488   -2.4161   11.1510 H   0  0  0  0  0  0  0  0  0  0  0  0
    1.5734   -4.2774   10.0246 Si  0  0  0  0  0  4  0  0  0  0  0  0
    0.1835   -4.1031   10.4910 H   0  0  0  0  0  0  0  0  0  0  0  0
    1.6015   -4.7349    8.6266 H   0  0  0  0  0  0  0  0  0  0  0  0
    2.2348   -5.2764   10.8927 H   0  0  0  0  0  0  0  0  0  0  0  0
   -2.4992   -1.7468   10.1068 Si  0  0  0  0  0  4  0  0  0  0  0  0
   -2.4916   -0.4269    9.4453 H   0  0  0  0  0  0  0  0  0  0  0  0
   -3.7900   -1.8841   10.8148 H   0  0  0  0  0  0  0  0  0  0  0  0
   -1.3631   -1.8911   11.0040 H   0  0  0  0  0  0  0  0  0  0  0  0
  1  2  1  0
  1  5  1  0
  2  3  1  0
  2  4  1  0
  2  8  1  0
  5  6  1  0
  5  7  1  0
  5 11  1  0
  8  9  1  0
  8 10  1  0
  8 17  1  0
 11 12  1  0
 11 13  1  0
 11 14  1  0
 14 15  1  0
 14 16  1  0
 14 23  1  0
 17 18  1  0
 17 19  1  0
 17 20  1  0
 20 21  1  0
 20 22  1  0
 20 26  1  0
 23 24  1  0
 23 25  1  0
 23 29  1  0
 26 27  1  0
 26 28  1  0
 26 36  1  0
 29 30  1  0
 29 31  1  0
 29 32  1  0
 32 33  1  0
 32 34  1  0
 32 35  1  0
 36 37  1  0
 36 38  1  0
 36 39  1  0
M  CHG  1   1   1
M  RAD  1   1   2
M  END
$$$$
