
     RDKit          3D

 39 38  0  0  0  0  0  0  0  0999 V2000
    0.0657    0.0109   -3.1539 S   0  0  0  0  0  2  0  0  0  0  0  0
    1.9916    0.2977   -4.0349 Si  0  0  0  0  0  4  0  0  0  0  0  0
    2.7209    1.3972   -3.4160 H   0  0  0  0  0  0  0  0  0  0  0  0
    2.7648   -0.9616   -3.8438 H   0  0  0  0  0  0  0  0  0  0  0  0
   -1.5140    0.3643   -4.5605 Si  0  0  0  0  0  4  0  0  0  0  0  0
   -2.4198    1.4167   -4.0543 H   0  0  0  0  0  0  0  0  0  0  0  0
   -0.9974    0.7905   -5.8624 H   0  0  0  0  0  0  0  0  0  0  0  0
    1.7564    0.6324   -6.2000 Si  0  0  0  0  0  4  0  0  0  0  0  0
    0.6061   -0.1672   -6.6869 H   0  0  0  0  0  0  0  0  0  0  0  0
    2.9866    0.3072   -6.9528 H   0  0  0  0  0  0  0  0  0  0  0  0
   -2.7209   -1.4963   -4.8586 Si  0  0  0  0  0  4  0  0  0  0  0  0
   -4.1655   -1.1723   -4.8586 H   0  0  0  0  0  0  0  0  0  0  0  0
   -2.4228   -2.4270   -3.7618 H   0  0  0  0  0  0  0  0  0  0  0  0
   -2.2498   -2.4368   -6.8356 Si  0  0  0  0  0  4  0  0  0  0  0  0
   -3.4178   -3.2048   -7.3095 H   0  0  0  0  0  0  0  0  0  0  0  0
   -1.9351   -1.3928   -7.8200 H   0  0  0  0  0  0  0  0  0  0  0  0
    1.2733    2.7749   -6.6724 Si  0  0  0  0  0  4  0  0  0  0  0  0
    2.2562    3.6869   -6.1170 H   0  0  0  0  0  0  0  0  0  0  0  0
   -0.0680    3.0724   -6.1144 H   0  0  0  0  0  0  0  0  0  0  0  0
    1.2374    2.9218   -8.9188 Si  0  0  0  0  0  4  0  0  0  0  0  0
    0.1927    3.8203   -9.3796 H   0  0  0  0  0  0  0  0  0  0  0  0
    0.9625    1.5920   -9.5181 H   0  0  0  0  0  0  0  0  0  0  0  0
   -0.5006   -3.8353   -6.6399 Si  0  0  0  0  0  4  0  0  0  0  0  0
   -0.8917   -5.2017   -7.0457 H   0  0  0  0  0  0  0  0  0  0  0  0
   -0.0768   -3.8710   -5.2204 H   0  0  0  0  0  0  0  0  0  0  0  0
    3.2691    3.5351   -9.5947 Si  0  0  0  0  0  4  0  0  0  0  0  0
    3.3693    3.2287  -11.0346 H   0  0  0  0  0  0  0  0  0  0  0  0
    3.5446    4.9373   -9.3006 H   0  0  0  0  0  0  0  0  0  0  0  0
    1.1893   -3.1694   -7.9264 Si  0  0  0  0  0  4  0  0  0  0  0  0
    2.3822   -2.9278   -7.0924 H   0  0  0  0  0  0  0  0  0  0  0  0
    0.8231   -1.8514   -8.5028 H   0  0  0  0  0  0  0  0  0  0  0  0
    1.6416   -4.6156   -9.5384 Si  0  0  0  0  0  4  0  0  0  0  0  0
    3.1055   -4.8145   -9.5960 H   0  0  0  0  0  0  0  0  0  0  0  0
    1.1692   -4.1436  -10.8361 H   0  0  0  0  0  0  0  0  0  0  0  0
    0.9884   -5.8925   -9.2115 H   0  0  0  0  0  0  0  0  0  0  0  0
    4.7903    2.2835   -8.5232 Si  0  0  0  0  0  4  0  0  0  0  0  0
    4.7039    0.8687   -8.9448 H   0  0  0  0  0  0  0  0  0  0  0  0
    4.6043    2.3280   -7.0761 H   0  0  0  0  0  0  0  0  0  0  0  0
    6.1280    2.7914   -8.8274 H   0  0  0  0  0  0  0  0  0  0  0  0
  1  2  1  0
  1  5  1  0
  2  3  1  0
  2  4  1  0
  2  8  1  0
  5  6  1  0
  5  7  1  0
  5 11  1  0
  8  9  1  0
  8 10  1  0
  8 17  1  0
 11 12  1  0
 11 13  1  0
 11 14  1  0
 14 15  1  0
 14 16  1  0
 14 23  1  0
 17 18  1  0
 17 19  1  0
 17 20  1  0
 20 21  1  0
 20 22  1  0
 20 26  1  0
 23 24  1  0
 23 25  1  0
 23 29  1  0
 26 27  1  0
 26 28  1  0
 26 36  1  0
 29 30  1  0
 29 31  1  0
 29 32  1  0
 32 33  1  0
 32 34  1  0
 32 35  1  0
 36 37  1  0
 36 38  1  0
 36 39  1  0
M  CHG  1   1   1
M  RAD  1   1   2
M  END
$$$$
