
     RDKit          3D

 39 38  0  0  0  0  0  0  0  0999 V2000
    0.0105   -0.1115    3.1532 S   0  0  0  0  0  2  0  0  0  0  0  0
   -0.0158    1.5163    4.4995 Si  0  0  0  0  0  4  0  0  0  0  0  0
    0.5239    2.7113    3.7980 H   0  0  0  0  0  0  0  0  0  0  0  0
   -1.4394    1.8483    4.7955 H   0  0  0  0  0  0  0  0  0  0  0  0
    1.0520   -1.8088    3.8830 Si  0  0  0  0  0  4  0  0  0  0  0  0
    2.0786   -1.4913    4.8672 H   0  0  0  0  0  0  0  0  0  0  0  0
    1.7567   -2.4370    2.7274 H   0  0  0  0  0  0  0  0  0  0  0  0
    1.0837    1.1280    6.3782 Si  0  0  0  0  0  4  0  0  0  0  0  0
    0.0824    0.7954    7.4276 H   0  0  0  0  0  0  0  0  0  0  0  0
    1.9791   -0.0335    6.2905 H   0  0  0  0  0  0  0  0  0  0  0  0
   -0.3369   -3.3598    4.6925 Si  0  0  0  0  0  4  0  0  0  0  0  0
   -1.5301   -3.3981    3.8311 H   0  0  0  0  0  0  0  0  0  0  0  0
    0.3430   -4.6565    4.6079 H   0  0  0  0  0  0  0  0  0  0  0  0
   -0.9103   -2.9600    6.7871 Si  0  0  0  0  0  4  0  0  0  0  0  0
   -0.3489   -4.0079    7.6845 H   0  0  0  0  0  0  0  0  0  0  0  0
   -0.4207   -1.6783    7.2786 H   0  0  0  0  0  0  0  0  0  0  0  0
    2.3255    2.8791    7.0029 Si  0  0  0  0  0  4  0  0  0  0  0  0
    3.7726    2.5490    6.9646 H   0  0  0  0  0  0  0  0  0  0  0  0
    2.1405    4.0128    6.0863 H   0  0  0  0  0  0  0  0  0  0  0  0
    1.8573    3.4436    9.1175 Si  0  0  0  0  0  4  0  0  0  0  0  0
    2.8197    2.8259   10.0368 H   0  0  0  0  0  0  0  0  0  0  0  0
    1.9256    4.9190    9.2515 H   0  0  0  0  0  0  0  0  0  0  0  0
   -3.1476   -3.0775    7.0332 Si  0  0  0  0  0  4  0  0  0  0  0  0
   -3.6224   -4.1009    6.0861 H   0  0  0  0  0  0  0  0  0  0  0  0
   -3.4957   -3.4908    8.3992 H   0  0  0  0  0  0  0  0  0  0  0  0
   -0.1992    2.8207    9.6861 Si  0  0  0  0  0  4  0  0  0  0  0  0
   -0.5230    1.4669    9.2562 H   0  0  0  0  0  0  0  0  0  0  0  0
   -0.2901    2.8311   11.1704 H   0  0  0  0  0  0  0  0  0  0  0  0
   -4.1025   -1.1451    6.4923 Si  0  0  0  0  0  4  0  0  0  0  0  0
   -3.2063   -0.3235    5.6779 H   0  0  0  0  0  0  0  0  0  0  0  0
   -5.3321   -1.3888    5.6999 H   0  0  0  0  0  0  0  0  0  0  0  0
   -4.7036    0.0175    8.2979 Si  0  0  0  0  0  4  0  0  0  0  0  0
   -5.8746   -0.6375    8.8975 H   0  0  0  0  0  0  0  0  0  0  0  0
   -3.6221    0.0924    9.2789 H   0  0  0  0  0  0  0  0  0  0  0  0
   -5.1137    1.3505    7.8567 H   0  0  0  0  0  0  0  0  0  0  0  0
   -1.6344    4.3143    8.8302 Si  0  0  0  0  0  4  0  0  0  0  0  0
   -1.1740    4.7340    7.4880 H   0  0  0  0  0  0  0  0  0  0  0  0
   -2.9531    3.7136    8.6883 H   0  0  0  0  0  0  0  0  0  0  0  0
   -1.6476    5.4725    9.7391 H   0  0  0  0  0  0  0  0  0  0  0  0
  1  2  1  0
  1  5  1  0
  2  3  1  0
  2  4  1  0
  2  8  1  0
  5  6  1  0
  5  7  1  0
  5 11  1  0
  8  9  1  0
  8 10  1  0
  8 17  1  0
 11 12  1  0
 11 13  1  0
 11 14  1  0
 14 15  1  0
 14 16  1  0
 14 23  1  0
 17 18  1  0
 17 19  1  0
 17 20  1  0
 20 21  1  0
 20 22  1  0
 20 26  1  0
 23 24  1  0
 23 25  1  0
 23 29  1  0
 26 27  1  0
 26 28  1  0
 26 36  1  0
 29 30  1  0
 29 31  1  0
 29 32  1  0
 32 33  1  0
 32 34  1  0
 32 35  1  0
 36 37  1  0
 36 38  1  0
 36 39  1  0
M  CHG  1   1   1
M  RAD  1   1   2
M  END
$$$$

     RDKit          3D

 39 38  0  0  0  0  0  0  0  0999 V2000
    0.0105   -0.1115    3.1532 S   0  0  0  0  0  2  0  0  0  0  0  0
   -1.6083   -0.4783    4.5471 Si  0  0  0  0  0  4  0  0  0  0  0  0
   -2.1482   -1.8446    4.3262 H   0  0  0  0  0  0  0  0  0  0  0  0
   -1.0354   -0.3827    5.8867 H   0  0  0  0  0  0  0  0  0  0  0  0
    1.1293    1.5599    3.9411 Si  0  0  0  0  0  4  0  0  0  0  0  0
    2.2982    1.8228    3.1120 H   0  0  0  0  0  0  0  0  0  0  0  0
    0.2204    2.7273    3.9132 H   0  0  0  0  0  0  0  0  0  0  0  0
   -3.1777    1.0486    4.2637 Si  0  0  0  0  0  4  0  0  0  0  0  0
   -2.9038    1.8216    3.0180 H   0  0  0  0  0  0  0  0  0  0  0  0
   -4.4737    0.3810    4.0361 H   0  0  0  0  0  0  0  0  0  0  0  0
    1.6700    1.1995    6.0780 Si  0  0  0  0  0  4  0  0  0  0  0  0
    1.8332    2.5340    6.7127 H   0  0  0  0  0  0  0  0  0  0  0  0
    0.5551    0.5484    6.7613 H   0  0  0  0  0  0  0  0  0  0  0  0
    3.5391   -0.0031    6.2501 Si  0  0  0  0  0  4  0  0  0  0  0  0
    4.3284    0.0183    5.0215 H   0  0  0  0  0  0  0  0  0  0  0  0
    4.3697    0.6221    7.3045 H   0  0  0  0  0  0  0  0  0  0  0  0
   -3.2639    2.4994    5.9355 Si  0  0  0  0  0  4  0  0  0  0  0  0
   -4.4106    3.4082    5.6821 H   0  0  0  0  0  0  0  0  0  0  0  0
   -2.0544    3.3659    5.8356 H   0  0  0  0  0  0  0  0  0  0  0  0
   -3.3945    1.5998    7.9114 Si  0  0  0  0  0  4  0  0  0  0  0  0
   -4.5393    2.1962    8.6577 H   0  0  0  0  0  0  0  0  0  0  0  0
   -2.1933    1.9306    8.7098 H   0  0  0  0  0  0  0  0  0  0  0  0
    3.1121   -2.0919    6.9078 Si  0  0  0  0  0  4  0  0  0  0  0  0
    4.4143   -2.7268    7.2098 H   0  0  0  0  0  0  0  0  0  0  0  0
    2.3614   -2.0468    8.1607 H   0  0  0  0  0  0  0  0  0  0  0  0
   -3.6428   -0.5932    7.9379 Si  0  0  0  0  0  4  0  0  0  0  0  0
   -2.3711   -1.3118    7.6506 H   0  0  0  0  0  0  0  0  0  0  0  0
   -3.9877   -0.9784    9.3385 H   0  0  0  0  0  0  0  0  0  0  0  0
    2.0866   -3.2649    5.3309 Si  0  0  0  0  0  4  0  0  0  0  0  0
    2.9655   -4.2768    4.7179 H   0  0  0  0  0  0  0  0  0  0  0  0
    1.5568   -2.4367    4.2619 H   0  0  0  0  0  0  0  0  0  0  0  0
    0.3762   -4.3615    6.2858 Si  0  0  0  0  0  4  0  0  0  0  0  0
   -0.0028   -5.5391    5.5060 H   0  0  0  0  0  0  0  0  0  0  0  0
    0.7880   -4.8348    7.6249 H   0  0  0  0  0  0  0  0  0  0  0  0
   -0.7772   -3.4790    6.4458 H   0  0  0  0  0  0  0  0  0  0  0  0
   -5.2767   -1.2967    6.6297 Si  0  0  0  0  0  4  0  0  0  0  0  0
   -4.7451   -1.6330    5.3126 H   0  0  0  0  0  0  0  0  0  0  0  0
   -5.8769   -2.5259    7.2217 H   0  0  0  0  0  0  0  0  0  0  0  0
   -6.3394   -0.2998    6.5827 H   0  0  0  0  0  0  0  0  0  0  0  0
  1  2  1  0
  1  5  1  0
  2  3  1  0
  2  4  1  0
  2  8  1  0
  5  6  1  0
  5  7  1  0
  5 11  1  0
  8  9  1  0
  8 10  1  0
  8 17  1  0
 11 12  1  0
 11 13  1  0
 11 14  1  0
 14 15  1  0
 14 16  1  0
 14 23  1  0
 17 18  1  0
 17 19  1  0
 17 20  1  0
 20 21  1  0
 20 22  1  0
 20 26  1  0
 23 24  1  0
 23 25  1  0
 23 29  1  0
 26 27  1  0
 26 28  1  0
 26 36  1  0
 29 30  1  0
 29 31  1  0
 29 32  1  0
 32 33  1  0
 32 34  1  0
 32 35  1  0
 36 37  1  0
 36 38  1  0
 36 39  1  0
M  CHG  1   1   1
M  RAD  1   1   2
M  END
$$$$

     RDKit          3D

 39 38  0  0  0  0  0  0  0  0999 V2000
    0.0105   -0.1115    3.1532 S   0  0  0  0  0  2  0  0  0  0  0  0
   -0.1936   -2.0248    3.9083 Si  0  0  0  0  0  4  0  0  0  0  0  0
    1.0986   -2.7613    3.8342 H   0  0  0  0  0  0  0  0  0  0  0  0
   -1.1284   -2.8056    3.0490 H   0  0  0  0  0  0  0  0  0  0  0  0
   -0.3597    1.5037    4.4380 Si  0  0  0  0  0  4  0  0  0  0  0  0
    0.4899    1.5130    5.6526 H   0  0  0  0  0  0  0  0  0  0  0  0
   -0.0075    2.7501    3.7071 H   0  0  0  0  0  0  0  0  0  0  0  0
   -0.9397   -2.1926    5.9834 Si  0  0  0  0  0  4  0  0  0  0  0  0
   -1.0474   -3.6522    6.2840 H   0  0  0  0  0  0  0  0  0  0  0  0
   -2.2917   -1.6556    6.1399 H   0  0  0  0  0  0  0  0  0  0  0  0
   -2.5221    1.7250    4.9706 Si  0  0  0  0  0  4  0  0  0  0  0  0
   -3.0919    0.4248    5.2494 H   0  0  0  0  0  0  0  0  0  0  0  0
   -3.2680    2.3705    3.8782 H   0  0  0  0  0  0  0  0  0  0  0  0
   -2.7126    3.0479    6.7684 Si  0  0  0  0  0  4  0  0  0  0  0  0
   -1.6671    2.7485    7.7609 H   0  0  0  0  0  0  0  0  0  0  0  0
   -2.4994    4.4689    6.3730 H   0  0  0  0  0  0  0  0  0  0  0  0
    0.4771   -1.3592    7.4707 Si  0  0  0  0  0  4  0  0  0  0  0  0
    0.3844    0.1005    7.5900 H   0  0  0  0  0  0  0  0  0  0  0  0
    1.8248   -1.8093    7.1413 H   0  0  0  0  0  0  0  0  0  0  0  0
   -0.0596   -2.2368    9.4780 Si  0  0  0  0  0  4  0  0  0  0  0  0
    0.2018   -3.6816    9.4115 H   0  0  0  0  0  0  0  0  0  0  0  0
    0.7660   -1.6088   10.5222 H   0  0  0  0  0  0  0  0  0  0  0  0
   -4.7600    2.7973    7.6458 Si  0  0  0  0  0  4  0  0  0  0  0  0
   -4.5860    2.5396    9.1014 H   0  0  0  0  0  0  0  0  0  0  0  0
   -5.4780    4.0851    7.5228 H   0  0  0  0  0  0  0  0  0  0  0  0
   -2.2274   -1.9066    9.9097 Si  0  0  0  0  0  4  0  0  0  0  0  0
   -2.8414   -1.1544    8.7806 H   0  0  0  0  0  0  0  0  0  0  0  0
   -2.9513   -3.1825   10.0148 H   0  0  0  0  0  0  0  0  0  0  0  0
   -5.8764    1.1644    6.6509 Si  0  0  0  0  0  4  0  0  0  0  0  0
   -5.1081    0.4877    5.6229 H   0  0  0  0  0  0  0  0  0  0  0  0
   -7.0806    1.7488    6.0013 H   0  0  0  0  0  0  0  0  0  0  0  0
   -6.5126   -0.3691    8.1563 Si  0  0  0  0  0  4  0  0  0  0  0  0
   -5.9626   -1.7028    7.8172 H   0  0  0  0  0  0  0  0  0  0  0  0
   -6.0047   -0.0135    9.4753 H   0  0  0  0  0  0  0  0  0  0  0  0
   -7.9724   -0.5001    8.1221 H   0  0  0  0  0  0  0  0  0  0  0  0
   -2.5206   -0.7717   11.8003 Si  0  0  0  0  0  4  0  0  0  0  0  0
   -1.2285   -0.3091   12.2919 H   0  0  0  0  0  0  0  0  0  0  0  0
   -3.1467   -1.6248   12.8454 H   0  0  0  0  0  0  0  0  0  0  0  0
   -3.3974    0.4046   11.5714 H   0  0  0  0  0  0  0  0  0  0  0  0
  1  2  1  0
  1  5  1  0
  2  3  1  0
  2  4  1  0
  2  8  1  0
  5  6  1  0
  5  7  1  0
  5 11  1  0
  8  9  1  0
  8 10  1  0
  8 17  1  0
 11 12  1  0
 11 13  1  0
 11 14  1  0
 14 15  1  0
 14 16  1  0
 14 23  1  0
 17 18  1  0
 17 19  1  0
 17 20  1  0
 20 21  1  0
 20 22  1  0
 20 26  1  0
 23 24  1  0
 23 25  1  0
 23 29  1  0
 26 27  1  0
 26 28  1  0
 26 36  1  0
 29 30  1  0
 29 31  1  0
 29 32  1  0
 32 33  1  0
 32 34  1  0
 32 35  1  0
 36 37  1  0
 36 38  1  0
 36 39  1  0
M  CHG  1   1   1
M  RAD  1   1   2
M  END
$$$$

     RDKit          3D

 39 38  0  0  0  0  0  0  0  0999 V2000
    0.0105   -0.1115    3.1532 S   0  0  0  0  0  2  0  0  0  0  0  0
   -1.6327   -0.0588    4.4797 Si  0  0  0  0  0  4  0  0  0  0  0  0
   -2.7969    0.5205    3.7583 H   0  0  0  0  0  0  0  0  0  0  0  0
   -2.0248   -1.4649    4.7861 H   0  0  0  0  0  0  0  0  0  0  0  0
    1.7393    0.8694    3.8931 Si  0  0  0  0  0  4  0  0  0  0  0  0
    1.4514    1.9181    4.8629 H   0  0  0  0  0  0  0  0  0  0  0  0
    2.4087    1.5363    2.7382 H   0  0  0  0  0  0  0  0  0  0  0  0
   -1.2231    1.0443    6.3518 Si  0  0  0  0  0  4  0  0  0  0  0  0
   -0.9431    0.0416    7.4152 H   0  0  0  0  0  0  0  0  0  0  0  0
   -0.0258    1.8918    6.2693 H   0  0  0  0  0  0  0  0  0  0  0  0
    3.2240   -0.5714    4.7354 Si  0  0  0  0  0  4  0  0  0  0  0  0
    3.2249   -1.7743    3.8866 H   0  0  0  0  0  0  0  0  0  0  0  0
    4.5477    0.0554    4.6597 H   0  0  0  0  0  0  0  0  0  0  0  0
    2.7771   -1.1063    6.8307 Si  0  0  0  0  0  4  0  0  0  0  0  0
    3.8358   -0.5776    7.7350 H   0  0  0  0  0  0  0  0  0  0  0  0
    1.5102   -0.5610    7.3015 H   0  0  0  0  0  0  0  0  0  0  0  0
   -2.9305    2.3612    6.9426 Si  0  0  0  0  0  4  0  0  0  0  0  0
   -2.5425    3.7935    6.8937 H   0  0  0  0  0  0  0  0  0  0  0  0
   -4.0598    2.2118    6.0141 H   0  0  0  0  0  0  0  0  0  0  0  0
   -3.5381    1.9382    9.0548 Si  0  0  0  0  0  4  0  0  0  0  0  0
   -2.8933    2.8850    9.9717 H   0  0  0  0  0  0  0  0  0  0  0  0
   -5.0111    2.0665    9.1701 H   0  0  0  0  0  0  0  0  0  0  0  0
    2.8023   -3.3438    7.1008 Si  0  0  0  0  0  4  0  0  0  0  0  0
    3.8171   -3.8689    6.1711 H   0  0  0  0  0  0  0  0  0  0  0  0
    3.1852   -3.6935    8.4751 H   0  0  0  0  0  0  0  0  0  0  0  0
   -3.0045   -0.1352    9.6517 Si  0  0  0  0  0  4  0  0  0  0  0  0
   -1.6596   -0.5172    9.2416 H   0  0  0  0  0  0  0  0  0  0  0  0
   -3.0359   -0.2100   11.1366 H   0  0  0  0  0  0  0  0  0  0  0  0
    0.8399   -4.2267    6.5461 Si  0  0  0  0  0  4  0  0  0  0  0  0
    0.0643   -3.3073    5.7127 H   0  0  0  0  0  0  0  0  0  0  0  0
    1.0436   -5.4734    5.7692 H   0  0  0  0  0  0  0  0  0  0  0  0
   -0.3670   -4.7620    8.3434 Si  0  0  0  0  0  4  0  0  0  0  0  0
    0.2337   -5.9517    8.9627 H   0  0  0  0  0  0  0  0  0  0  0  0
   -0.4102   -3.6681    9.3123 H   0  0  0  0  0  0  0  0  0  0  0  0
   -1.7100   -5.1234    7.8901 H   0  0  0  0  0  0  0  0  0  0  0  0
   -4.5439   -1.5189    8.7922 Si  0  0  0  0  0  4  0  0  0  0  0  0
   -4.9290   -1.0564    7.4403 H   0  0  0  0  0  0  0  0  0  0  0  0
   -3.9946   -2.8619    8.6710 H   0  0  0  0  0  0  0  0  0  0  0  0
   -5.7123   -1.4765    9.6869 H   0  0  0  0  0  0  0  0  0  0  0  0
  1  2  1  0
  1  5  1  0
  2  3  1  0
  2  4  1  0
  2  8  1  0
  5  6  1  0
  5  7  1  0
  5 11  1  0
  8  9  1  0
  8 10  1  0
  8 17  1  0
 11 12  1  0
 11 13  1  0
 11 14  1  0
 14 15  1  0
 14 16  1  0
 14 23  1  0
 17 18  1  0
 17 19  1  0
 17 20  1  0
 20 21  1  0
 20 22  1  0
 20 26  1  0
 23 24  1  0
 23 25  1  0
 23 29  1  0
 26 27  1  0
 26 28  1  0
 26 36  1  0
 29 30  1  0
 29 31  1  0
 29 32  1  0
 32 33  1  0
 32 34  1  0
 32 35  1  0
 36 37  1  0
 36 38  1  0
 36 39  1  0
M  CHG  1   1   1
M  RAD  1   1   2
M  END
$$$$

     RDKit          3D

 39 38  0  0  0  0  0  0  0  0999 V2000
    0.0105   -0.1115    3.1532 S   0  0  0  0  0  2  0  0  0  0  0  0
   -0.5435   -1.9558    3.9043 Si  0  0  0  0  0  4  0  0  0  0  0  0
    0.5904   -2.9181    3.8283 H   0  0  0  0  0  0  0  0  0  0  0  0
   -1.6064   -2.5487    3.0438 H   0  0  0  0  0  0  0  0  0  0  0  0
   -0.0550    1.5416    4.4415 Si  0  0  0  0  0  4  0  0  0  0  0  0
    0.7816    1.3912    5.6558 H   0  0  0  0  0  0  0  0  0  0  0  0
    0.5214    2.7030    3.7131 H   0  0  0  0  0  0  0  0  0  0  0  0
   -1.3079   -1.9873    5.9794 Si  0  0  0  0  0  4  0  0  0  0  0  0
   -1.6834   -3.4025    6.2769 H   0  0  0  0  0  0  0  0  0  0  0  0
   -2.5374   -1.2102    6.1375 H   0  0  0  0  0  0  0  0  0  0  0  0
   -2.1394    2.1574    4.9754 Si  0  0  0  0  0  4  0  0  0  0  0  0
   -2.9395    0.9841    5.2516 H   0  0  0  0  0  0  0  0  0  0  0  0
   -2.7532    2.9318    3.8845 H   0  0  0  0  0  0  0  0  0  0  0  0
   -2.0823    3.4888    6.7759 Si  0  0  0  0  0  4  0  0  0  0  0  0
   -1.1101    2.9994    7.7675 H   0  0  0  0  0  0  0  0  0  0  0  0
   -1.6103    4.8468    6.3835 H   0  0  0  0  0  0  0  0  0  0  0  0
    0.2385   -1.4330    7.4679 Si  0  0  0  0  0  4  0  0  0  0  0  0
    0.4170    0.0184    7.5903 H   0  0  0  0  0  0  0  0  0  0  0  0
    1.4798   -2.1237    7.1371 H   0  0  0  0  0  0  0  0  0  0  0  0
   -0.4512   -2.2007    9.4736 Si  0  0  0  0  0  4  0  0  0  0  0  0
   -0.4612   -3.6688    9.4040 H   0  0  0  0  0  0  0  0  0  0  0  0
    0.4761   -1.7382   10.5188 H   0  0  0  0  0  0  0  0  0  0  0  0
   -4.1408    3.6189    7.6535 Si  0  0  0  0  0  4  0  0  0  0  0  0
   -4.0175    3.3304    9.1086 H   0  0  0  0  0  0  0  0  0  0  0  0
   -4.6086    5.0174    7.5335 H   0  0  0  0  0  0  0  0  0  0  0  0
   -2.5208   -1.4766    9.9068 Si  0  0  0  0  0  4  0  0  0  0  0  0
   -2.9853   -0.6216    8.7795 H   0  0  0  0  0  0  0  0  0  0  0  0
   -3.4679   -2.5972   10.0094 H   0  0  0  0  0  0  0  0  0  0  0  0
   -5.5396    2.2224    6.6556 Si  0  0  0  0  0  4  0  0  0  0  0  0
   -4.9095    1.4176    5.6259 H   0  0  0  0  0  0  0  0  0  0  0  0
   -6.6151    3.0205    6.0077 H   0  0  0  0  0  0  0  0  0  0  0  0
   -6.4481    0.8296    8.1581 Si  0  0  0  0  0  4  0  0  0  0  0  0
   -6.1539   -0.5820    7.8159 H   0  0  0  0  0  0  0  0  0  0  0  0
   -5.8834    1.0825    9.4776 H   0  0  0  0  0  0  0  0  0  0  0  0
   -7.9070    0.9706    8.1241 H   0  0  0  0  0  0  0  0  0  0  0  0
   -2.5994   -0.3112   11.7998 Si  0  0  0  0  0  4  0  0  0  0  0  0
   -1.2440   -0.0963   12.2919 H   0  0  0  0  0  0  0  0  0  0  0  0
   -3.3723   -1.0362   12.8434 H   0  0  0  0  0  0  0  0  0  0  0  0
   -3.2437    1.0073   11.5737 H   0  0  0  0  0  0  0  0  0  0  0  0
  1  2  1  0
  1  5  1  0
  2  3  1  0
  2  4  1  0
  2  8  1  0
  5  6  1  0
  5  7  1  0
  5 11  1  0
  8  9  1  0
  8 10  1  0
  8 17  1  0
 11 12  1  0
 11 13  1  0
 11 14  1  0
 14 15  1  0
 14 16  1  0
 14 23  1  0
 17 18  1  0
 17 19  1  0
 17 20  1  0
 20 21  1  0
 20 22  1  0
 20 26  1  0
 23 24  1  0
 23 25  1  0
 23 29  1  0
 26 27  1  0
 26 28  1  0
 26 36  1  0
 29 30  1  0
 29 31  1  0
 29 32  1  0
 32 33  1  0
 32 34  1  0
 32 35  1  0
 36 37  1  0
 36 38  1  0
 36 39  1  0
M  CHG  1   1   1
M  RAD  1   1   2
M  END
$$$$

     RDKit          3D

 39 38  0  0  0  0  0  0  0  0999 V2000
    0.0105   -0.1115    3.1532 S   0  0  0  0  0  2  0  0  0  0  0  0
   -1.6307   -0.0156    4.4798 Si  0  0  0  0  0  4  0  0  0  0  0  0
   -2.7791    0.5946    3.7586 H   0  0  0  0  0  0  0  0  0  0  0  0
   -2.0599   -1.4109    4.7857 H   0  0  0  0  0  0  0  0  0  0  0  0
    1.7647    0.8230    3.8933 Si  0  0  0  0  0  4  0  0  0  0  0  0
    1.5047    1.8786    4.8635 H   0  0  0  0  0  0  0  0  0  0  0  0
    2.4516    1.4722    2.7386 H   0  0  0  0  0  0  0  0  0  0  0  0
   -1.1919    1.0756    6.3522 Si  0  0  0  0  0  4  0  0  0  0  0  0
   -0.9386    0.0656    7.4153 H   0  0  0  0  0  0  0  0  0  0  0  0
    0.0274    1.8911    6.2699 H   0  0  0  0  0  0  0  0  0  0  0  0
    3.2107   -0.6570    4.7352 Si  0  0  0  0  0  4  0  0  0  0  0  0
    3.1797   -1.8592    3.8860 H   0  0  0  0  0  0  0  0  0  0  0  0
    4.5506   -0.0654    4.6597 H   0  0  0  0  0  0  0  0  0  0  0  0
    2.7498   -1.1804    6.8303 Si  0  0  0  0  0  4  0  0  0  0  0  0
    3.8222   -0.6803    7.7348 H   0  0  0  0  0  0  0  0  0  0  0  0
    1.4978   -0.6018    7.3013 H   0  0  0  0  0  0  0  0  0  0  0  0
   -2.8638    2.4372    6.9434 Si  0  0  0  0  0  4  0  0  0  0  0  0
   -2.4380    3.8587    6.8950 H   0  0  0  0  0  0  0  0  0  0  0  0
   -3.9967    2.3180    6.0149 H   0  0  0  0  0  0  0  0  0  0  0  0
   -3.4824    2.0298    9.0555 Si  0  0  0  0  0  4  0  0  0  0  0  0
   -2.8127    2.9588    9.9727 H   0  0  0  0  0  0  0  0  0  0  0  0
   -4.9515    2.1971    9.1709 H   0  0  0  0  0  0  0  0  0  0  0  0
    2.7157   -3.4179    7.0998 Si  0  0  0  0  0  4  0  0  0  0  0  0
    3.7161   -3.9694    6.1698 H   0  0  0  0  0  0  0  0  0  0  0  0
    3.0892   -3.7781    8.4740 H   0  0  0  0  0  0  0  0  0  0  0  0
   -3.0039   -0.0572    9.6518 Si  0  0  0  0  0  4  0  0  0  0  0  0
   -1.6697   -0.4746    9.2415 H   0  0  0  0  0  0  0  0  0  0  0  0
   -3.0373   -0.1316   11.1366 H   0  0  0  0  0  0  0  0  0  0  0  0
    0.7305   -4.2483    6.5448 Si  0  0  0  0  0  4  0  0  0  0  0  0
   -0.0204   -3.3083    5.7117 H   0  0  0  0  0  0  0  0  0  0  0  0
    0.9011   -5.4997    5.7675 H   0  0  0  0  0  0  0  0  0  0  0  0
   -0.4901   -4.7519    8.3420 Si  0  0  0  0  0  4  0  0  0  0  0  0
    0.0789   -5.9574    8.9609 H   0  0  0  0  0  0  0  0  0  0  0  0
   -0.5043   -3.6575    9.3113 H   0  0  0  0  0  0  0  0  0  0  0  0
   -1.8422   -5.0775    7.8886 H   0  0  0  0  0  0  0  0  0  0  0  0
   -4.5795   -1.3994    8.7919 Si  0  0  0  0  0  4  0  0  0  0  0  0
   -4.9523   -0.9264    7.4402 H   0  0  0  0  0  0  0  0  0  0  0  0
   -4.0661   -2.7564    8.6702 H   0  0  0  0  0  0  0  0  0  0  0  0
   -5.7464   -1.3262    9.6867 H   0  0  0  0  0  0  0  0  0  0  0  0
  1  2  1  0
  1  5  1  0
  2  3  1  0
  2  4  1  0
  2  8  1  0
  5  6  1  0
  5  7  1  0
  5 11  1  0
  8  9  1  0
  8 10  1  0
  8 17  1  0
 11 12  1  0
 11 13  1  0
 11 14  1  0
 14 15  1  0
 14 16  1  0
 14 23  1  0
 17 18  1  0
 17 19  1  0
 17 20  1  0
 20 21  1  0
 20 22  1  0
 20 26  1  0
 23 24  1  0
 23 25  1  0
 23 29  1  0
 26 27  1  0
 26 28  1  0
 26 36  1  0
 29 30  1  0
 29 31  1  0
 29 32  1  0
 32 33  1  0
 32 34  1  0
 32 35  1  0
 36 37  1  0
 36 38  1  0
 36 39  1  0
M  CHG  1   1   1
M  RAD  1   1   2
M  END
$$$$

     RDKit          3D

 39 38  0  0  0  0  0  0  0  0999 V2000
    0.0105   -0.1115    3.1532 S   0  0  0  0  0  2  0  0  0  0  0  0
    0.9087   -1.8075    3.9210 Si  0  0  0  0  0  4  0  0  0  0  0  0
    2.3920   -1.6965    3.8499 H   0  0  0  0  0  0  0  0  0  0  0  0
    0.5719   -2.9827    3.0683 H   0  0  0  0  0  0  0  0  0  0  0  0
   -1.2022    1.0290    4.4280 Si  0  0  0  0  0  4  0  0  0  0  0  0
   -0.5058    1.5191    5.6412 H   0  0  0  0  0  0  0  0  0  0  0  0
   -1.6048    2.2549    3.6885 H   0  0  0  0  0  0  0  0  0  0  0  0
    0.3786   -2.3507    5.9983 Si  0  0  0  0  0  4  0  0  0  0  0  0
    1.1043   -3.6194    6.3085 H   0  0  0  0  0  0  0  0  0  0  0  0
   -1.0429   -2.6599    6.1533 H   0  0  0  0  0  0  0  0  0  0  0  0
   -3.1204    0.0075    4.9624 Si  0  0  0  0  0  4  0  0  0  0  0  0
   -2.8669   -1.3874    5.2505 H   0  0  0  0  0  0  0  0  0  0  0  0
   -4.0970    0.1191    3.8668 H   0  0  0  0  0  0  0  0  0  0  0  0
   -4.0219    1.0092    6.7517 Si  0  0  0  0  0  4  0  0  0  0  0  0
   -2.9900    1.3514    7.7447 H   0  0  0  0  0  0  0  0  0  0  0  0
   -4.6383    2.3042    6.3468 H   0  0  0  0  0  0  0  0  0  0  0  0
    1.0843   -0.8585    7.4780 Si  0  0  0  0  0  4  0  0  0  0  0  0
    0.1914    0.3009    7.5880 H   0  0  0  0  0  0  0  0  0  0  0  0
    2.4542   -0.4807    7.1495 H   0  0  0  0  0  0  0  0  0  0  0  0
    1.1248   -1.8737    9.4918 Si  0  0  0  0  0  4  0  0  0  0  0  0
    2.1491   -2.9262    9.4343 H   0  0  0  0  0  0  0  0  0  0  0  0
    1.4560   -0.8851   10.5307 H   0  0  0  0  0  0  0  0  0  0  0  0
   -5.5819   -0.3372    7.6338 Si  0  0  0  0  0  4  0  0  0  0  0  0
   -5.2972   -0.4447    9.0908 H   0  0  0  0  0  0  0  0  0  0  0  0
   -6.8967    0.3286    7.5035 H   0  0  0  0  0  0  0  0  0  0  0  0
   -0.8585   -2.8086    9.9246 Si  0  0  0  0  0  4  0  0  0  0  0  0
   -1.7853   -2.5351    8.7915 H   0  0  0  0  0  0  0  0  0  0  0  0
   -0.7461   -4.2706   10.0391 H   0  0  0  0  0  0  0  0  0  0  0  0
   -5.5928   -2.3214    6.6512 Si  0  0  0  0  0  4  0  0  0  0  0  0
   -4.5750   -2.4597    5.6265 H   0  0  0  0  0  0  0  0  0  0  0  0
   -6.9165   -2.5138    5.9996 H   0  0  0  0  0  0  0  0  0  0  0  0
   -5.2671   -3.9393    8.1676 Si  0  0  0  0  0  4  0  0  0  0  0  0
   -4.0648   -4.7400    7.8362 H   0  0  0  0  0  0  0  0  0  0  0  0
   -5.0479   -3.3523    9.4835 H   0  0  0  0  0  0  0  0  0  0  0  0
   -6.4044   -4.8639    8.1363 H   0  0  0  0  0  0  0  0  0  0  0  0
   -1.7404   -2.0196   11.8081 Si  0  0  0  0  0  4  0  0  0  0  0  0
   -0.9285   -0.9109   12.2948 H   0  0  0  0  0  0  0  0  0  0  0  0
   -1.7854   -3.0705   12.8597 H   0  0  0  0  0  0  0  0  0  0  0  0
   -3.1243   -1.5355   11.5729 H   0  0  0  0  0  0  0  0  0  0  0  0
  1  2  1  0
  1  5  1  0
  2  3  1  0
  2  4  1  0
  2  8  1  0
  5  6  1  0
  5  7  1  0
  5 11  1  0
  8  9  1  0
  8 10  1  0
  8 17  1  0
 11 12  1  0
 11 13  1  0
 11 14  1  0
 14 15  1  0
 14 16  1  0
 14 23  1  0
 17 18  1  0
 17 19  1  0
 17 20  1  0
 20 21  1  0
 20 22  1  0
 20 26  1  0
 23 24  1  0
 23 25  1  0
 23 29  1  0
 26 27  1  0
 26 28  1  0
 26 36  1  0
 29 30  1  0
 29 31  1  0
 29 32  1  0
 32 33  1  0
 32 34  1  0
 32 35  1  0
 36 37  1  0
 36 38  1  0
 36 39  1  0
M  CHG  1   1   1
M  RAD  1   1   2
M  END
$$$$
