
     RDKit          3D

 39 38  0  0  0  0  0  0  0  0999 V2000
   -1.8616   -0.2274   -3.2626 S   0  0  0  0  0  2  0  0  0  0  0  0
   -3.0847   -1.9306   -3.6575 Si  0  0  0  0  0  4  0  0  0  0  0  0
   -4.1800   -1.9272   -2.6467 H   0  0  0  0  0  0  0  0  0  0  0  0
   -2.3387   -3.1777   -3.4400 H   0  0  0  0  0  0  0  0  0  0  0  0
   -1.4678    0.9204   -5.0106 Si  0  0  0  0  0  4  0  0  0  0  0  0
   -1.2364    2.3339   -4.5998 H   0  0  0  0  0  0  0  0  0  0  0  0
   -2.6189    0.9299   -5.9024 H   0  0  0  0  0  0  0  0  0  0  0  0
   -3.9983   -1.8778   -5.6705 Si  0  0  0  0  0  4  0  0  0  0  0  0
   -3.4414   -0.8331   -6.5184 H   0  0  0  0  0  0  0  0  0  0  0  0
   -5.4593   -1.6272   -5.5828 H   0  0  0  0  0  0  0  0  0  0  0  0
    0.3893    0.2383   -6.0379 Si  0  0  0  0  0  4  0  0  0  0  0  0
    1.2396    1.3350   -6.4546 H   0  0  0  0  0  0  0  0  0  0  0  0
    1.1630   -0.5569   -5.0426 H   0  0  0  0  0  0  0  0  0  0  0  0
   -0.1340   -1.1409   -7.7041 Si  0  0  0  0  0  4  0  0  0  0  0  0
   -0.7973   -2.3210   -7.0905 H   0  0  0  0  0  0  0  0  0  0  0  0
    1.0943   -1.6519   -8.3361 H   0  0  0  0  0  0  0  0  0  0  0  0
   -3.7524   -3.8257   -6.7488 Si  0  0  0  0  0  4  0  0  0  0  0  0
   -4.4340   -4.9171   -6.0735 H   0  0  0  0  0  0  0  0  0  0  0  0
   -2.3240   -4.1740   -6.8767 H   0  0  0  0  0  0  0  0  0  0  0  0
   -4.5756   -3.5368   -8.8227 Si  0  0  0  0  0  4  0  0  0  0  0  0
   -5.4489   -4.6485   -9.2026 H   0  0  0  0  0  0  0  0  0  0  0  0
   -3.4863   -3.3937   -9.7882 H   0  0  0  0  0  0  0  0  0  0  0  0
   -1.5293   -0.2447   -9.1502 Si  0  0  0  0  0  4  0  0  0  0  0  0
   -2.6007    0.4370   -8.4441 H   0  0  0  0  0  0  0  0  0  0  0  0
   -2.1290   -1.3335   -9.9612 H   0  0  0  0  0  0  0  0  0  0  0  0
   -5.8051   -1.6647   -8.9222 Si  0  0  0  0  0  4  0  0  0  0  0  0
   -6.2713   -1.5090  -10.2868 H   0  0  0  0  0  0  0  0  0  0  0  0
   -4.9592   -0.5036   -8.5593 H   0  0  0  0  0  0  0  0  0  0  0  0
   -0.5620    1.1810  -10.5435 Si  0  0  0  0  0  4  0  0  0  0  0  0
   -1.6303    1.7379  -11.4079 H   0  0  0  0  0  0  0  0  0  0  0  0
    0.0045    2.3343   -9.8104 H   0  0  0  0  0  0  0  0  0  0  0  0
    0.9326    0.2113  -11.8592 Si  0  0  0  0  0  4  0  0  0  0  0  0
    0.8034    0.6823  -13.2664 H   0  0  0  0  0  0  0  0  0  0  0  0
    0.8049   -1.2369  -11.8864 H   0  0  0  0  0  0  0  0  0  0  0  0
    2.2755    0.6185  -11.4183 H   0  0  0  0  0  0  0  0  0  0  0  0
   -7.5139   -1.7705   -7.4919 Si  0  0  0  0  0  4  0  0  0  0  0  0
   -7.6237   -0.5033   -6.7317 H   0  0  0  0  0  0  0  0  0  0  0  0
   -7.2536   -2.8959   -6.5694 H   0  0  0  0  0  0  0  0  0  0  0  0
   -8.7473   -2.0522   -8.2066 H   0  0  0  0  0  0  0  0  0  0  0  0
  1  2  1  0
  1  5  1  0
  2  3  1  0
  2  4  1  0
  2  8  1  0
  5  6  1  0
  5  7  1  0
  5 11  1  0
  8  9  1  0
  8 10  1  0
  8 17  1  0
 11 12  1  0
 11 13  1  0
 11 14  1  0
 14 15  1  0
 14 16  1  0
 14 23  1  0
 17 18  1  0
 17 19  1  0
 17 20  1  0
 20 21  1  0
 20 22  1  0
 20 26  1  0
 23 24  1  0
 23 25  1  0
 23 29  1  0
 26 27  1  0
 26 28  1  0
 26 36  1  0
 29 30  1  0
 29 31  1  0
 29 32  1  0
 32 33  1  0
 32 34  1  0
 32 35  1  0
 36 37  1  0
 36 38  1  0
 36 39  1  0
M  CHG  1   1   1
M  RAD  1   1   2
M  END
$$$$

     RDKit          3D

 39 38  0  0  0  0  0  0  0  0999 V2000
   -1.8616   -0.2274   -3.2626 S   0  0  0  0  0  2  0  0  0  0  0  0
   -3.6306   -0.2009   -4.5088 Si  0  0  0  0  0  4  0  0  0  0  0  0
   -3.5173   -1.2575   -5.5180 H   0  0  0  0  0  0  0  0  0  0  0  0
   -4.7999   -0.4210   -3.6781 H   0  0  0  0  0  0  0  0  0  0  0  0
   -0.1928    0.5109   -4.4324 Si  0  0  0  0  0  4  0  0  0  0  0  0
   -0.1032    1.9660   -4.1212 H   0  0  0  0  0  0  0  0  0  0  0  0
    1.0326   -0.1579   -4.0351 H   0  0  0  0  0  0  0  0  0  0  0  0
   -3.8231    1.7701   -5.5539 Si  0  0  0  0  0  4  0  0  0  0  0  0
   -2.4925    2.3311   -5.8166 H   0  0  0  0  0  0  0  0  0  0  0  0
   -4.6179    2.6833   -4.7326 H   0  0  0  0  0  0  0  0  0  0  0  0
   -0.7022    0.2902   -6.5615 Si  0  0  0  0  0  4  0  0  0  0  0  0
   -2.0554   -0.3025   -6.7562 H   0  0  0  0  0  0  0  0  0  0  0  0
   -0.6834    1.6028   -7.2634 H   0  0  0  0  0  0  0  0  0  0  0  0
    0.7321   -1.0303   -7.6537 Si  0  0  0  0  0  4  0  0  0  0  0  0
    2.0998   -0.4805   -7.5816 H   0  0  0  0  0  0  0  0  0  0  0  0
    0.7115   -2.4051   -7.1278 H   0  0  0  0  0  0  0  0  0  0  0  0
   -4.8945    1.4472   -7.5034 Si  0  0  0  0  0  4  0  0  0  0  0  0
   -5.6331    2.6716   -7.8457 H   0  0  0  0  0  0  0  0  0  0  0  0
   -3.9322    1.0866   -8.5531 H   0  0  0  0  0  0  0  0  0  0  0  0
   -6.3612   -0.2010   -7.2011 Si  0  0  0  0  0  4  0  0  0  0  0  0
   -5.7042   -1.2970   -6.4587 H   0  0  0  0  0  0  0  0  0  0  0  0
   -7.4511    0.3174   -6.3645 H   0  0  0  0  0  0  0  0  0  0  0  0
    0.0253   -1.1164   -9.7819 Si  0  0  0  0  0  4  0  0  0  0  0  0
    1.1787   -1.0220  -10.7062 H   0  0  0  0  0  0  0  0  0  0  0  0
   -0.8310    0.0584  -10.0959 H   0  0  0  0  0  0  0  0  0  0  0  0
   -7.1694   -0.9605   -9.1265 Si  0  0  0  0  0  4  0  0  0  0  0  0
   -8.6331   -1.1473   -8.9985 H   0  0  0  0  0  0  0  0  0  0  0  0
   -6.9141   -0.0150  -10.2136 H   0  0  0  0  0  0  0  0  0  0  0  0
   -1.1707   -2.9387  -10.1725 Si  0  0  0  0  0  4  0  0  0  0  0  0
   -0.3155   -3.9444  -10.8277 H   0  0  0  0  0  0  0  0  0  0  0  0
   -2.3337   -2.6282  -11.0374 H   0  0  0  0  0  0  0  0  0  0  0  0
   -1.9907   -3.8136   -8.2837 Si  0  0  0  0  0  4  0  0  0  0  0  0
   -3.0276   -2.9239   -7.7604 H   0  0  0  0  0  0  0  0  0  0  0  0
   -0.9214   -4.0375   -7.3015 H   0  0  0  0  0  0  0  0  0  0  0  0
   -2.5795   -5.1182   -8.6310 H   0  0  0  0  0  0  0  0  0  0  0  0
   -6.2482   -2.9601   -9.5519 Si  0  0  0  0  0  4  0  0  0  0  0  0
   -6.2231   -3.6992   -8.2851 H   0  0  0  0  0  0  0  0  0  0  0  0
   -4.8858   -2.7268  -10.0610 H   0  0  0  0  0  0  0  0  0  0  0  0
   -7.0492   -3.6665  -10.5614 H   0  0  0  0  0  0  0  0  0  0  0  0
  1  2  1  0
  1  5  1  0
  2  3  1  0
  2  4  1  0
  2  8  1  0
  5  6  1  0
  5  7  1  0
  5 11  1  0
  8  9  1  0
  8 10  1  0
  8 17  1  0
 11 12  1  0
 11 13  1  0
 11 14  1  0
 14 15  1  0
 14 16  1  0
 14 23  1  0
 17 18  1  0
 17 19  1  0
 17 20  1  0
 20 21  1  0
 20 22  1  0
 20 26  1  0
 23 24  1  0
 23 25  1  0
 23 29  1  0
 26 27  1  0
 26 28  1  0
 26 36  1  0
 29 30  1  0
 29 31  1  0
 29 32  1  0
 32 33  1  0
 32 34  1  0
 32 35  1  0
 36 37  1  0
 36 38  1  0
 36 39  1  0
M  CHG  1   1   1
M  RAD  1   1   2
M  END
$$$$

     RDKit          3D

 39 38  0  0  0  0  0  0  0  0999 V2000
   -1.8616   -0.2274   -3.2626 S   0  0  0  0  0  2  0  0  0  0  0  0
   -2.7699    1.5417   -4.0755 Si  0  0  0  0  0  4  0  0  0  0  0  0
   -4.2104    1.4865   -3.6953 H   0  0  0  0  0  0  0  0  0  0  0  0
   -2.1992    2.7378   -3.4855 H   0  0  0  0  0  0  0  0  0  0  0  0
   -1.1272   -1.5039   -4.8491 Si  0  0  0  0  0  4  0  0  0  0  0  0
   -0.6424   -0.6099   -5.9091 H   0  0  0  0  0  0  0  0  0  0  0  0
   -0.0432   -2.3366   -4.2899 H   0  0  0  0  0  0  0  0  0  0  0  0
   -2.6820    1.5651   -6.2959 Si  0  0  0  0  0  4  0  0  0  0  0  0
   -3.8467    2.2961   -6.8709 H   0  0  0  0  0  0  0  0  0  0  0  0
   -2.7739    0.1939   -6.7753 H   0  0  0  0  0  0  0  0  0  0  0  0
   -2.7231   -2.8319   -5.6203 Si  0  0  0  0  0  4  0  0  0  0  0  0
   -4.0096   -2.3646   -5.0837 H   0  0  0  0  0  0  0  0  0  0  0  0
   -2.5235   -4.2156   -5.1281 H   0  0  0  0  0  0  0  0  0  0  0  0
   -2.7363   -2.9266   -7.8481 Si  0  0  0  0  0  4  0  0  0  0  0  0
   -1.5711   -2.2023   -8.3856 H   0  0  0  0  0  0  0  0  0  0  0  0
   -2.6836   -4.2996   -8.3470 H   0  0  0  0  0  0  0  0  0  0  0  0
   -0.7620    2.4269   -7.0403 Si  0  0  0  0  0  4  0  0  0  0  0  0
   -1.0103    3.8563   -7.3416 H   0  0  0  0  0  0  0  0  0  0  0  0
    0.2987    2.3402   -6.0473 H   0  0  0  0  0  0  0  0  0  0  0  0
   -0.2031    1.3919   -8.9321 Si  0  0  0  0  0  4  0  0  0  0  0  0
   -1.4010    0.7403   -9.5032 H   0  0  0  0  0  0  0  0  0  0  0  0
    0.2784    2.3451   -9.9561 H   0  0  0  0  0  0  0  0  0  0  0  0
   -4.6373   -1.9403   -8.5469 Si  0  0  0  0  0  4  0  0  0  0  0  0
   -5.7491   -2.7845   -8.0592 H   0  0  0  0  0  0  0  0  0  0  0  0
   -4.7026   -0.6045   -7.9597 H   0  0  0  0  0  0  0  0  0  0  0  0
    1.3777   -0.1280   -8.6215 Si  0  0  0  0  0  4  0  0  0  0  0  0
    1.2140   -0.8982   -7.4027 H   0  0  0  0  0  0  0  0  0  0  0  0
    1.3375   -1.0870   -9.7544 H   0  0  0  0  0  0  0  0  0  0  0  0
   -4.7397   -1.9002  -10.7620 Si  0  0  0  0  0  4  0  0  0  0  0  0
   -4.0756   -3.0959  -11.3120 H   0  0  0  0  0  0  0  0  0  0  0  0
   -6.1562   -1.9591  -11.1631 H   0  0  0  0  0  0  0  0  0  0  0  0
   -3.8509   -0.0401  -11.5986 Si  0  0  0  0  0  4  0  0  0  0  0  0
   -4.6232    0.4822  -12.7298 H   0  0  0  0  0  0  0  0  0  0  0  0
   -2.4963   -0.3595  -12.0952 H   0  0  0  0  0  0  0  0  0  0  0  0
   -3.6827    0.9872  -10.5559 H   0  0  0  0  0  0  0  0  0  0  0  0
    3.4196    0.8054   -8.5608 Si  0  0  0  0  0  4  0  0  0  0  0  0
    3.6974    1.4616   -9.8359 H   0  0  0  0  0  0  0  0  0  0  0  0
    3.4756    1.7676   -7.4509 H   0  0  0  0  0  0  0  0  0  0  0  0
    4.3754   -0.2884   -8.2868 H   0  0  0  0  0  0  0  0  0  0  0  0
  1  2  1  0
  1  5  1  0
  2  3  1  0
  2  4  1  0
  2  8  1  0
  5  6  1  0
  5  7  1  0
  5 11  1  0
  8  9  1  0
  8 10  1  0
  8 17  1  0
 11 12  1  0
 11 13  1  0
 11 14  1  0
 14 15  1  0
 14 16  1  0
 14 23  1  0
 17 18  1  0
 17 19  1  0
 17 20  1  0
 20 21  1  0
 20 22  1  0
 20 26  1  0
 23 24  1  0
 23 25  1  0
 23 29  1  0
 26 27  1  0
 26 28  1  0
 26 36  1  0
 29 30  1  0
 29 31  1  0
 29 32  1  0
 32 33  1  0
 32 34  1  0
 32 35  1  0
 36 37  1  0
 36 38  1  0
 36 39  1  0
M  CHG  1   1   1
M  RAD  1   1   2
M  END
$$$$

     RDKit          3D

 39 38  0  0  0  0  0  0  0  0999 V2000
   -1.8616   -0.2274   -3.2626 S   0  0  0  0  0  2  0  0  0  0  0  0
   -3.0849   -1.9305   -3.6574 Si  0  0  0  0  0  4  0  0  0  0  0  0
   -4.1802   -1.9269   -2.6467 H   0  0  0  0  0  0  0  0  0  0  0  0
   -2.3390   -3.1776   -3.4398 H   0  0  0  0  0  0  0  0  0  0  0  0
   -1.4677    0.9203   -5.0107 Si  0  0  0  0  0  4  0  0  0  0  0  0
   -1.2361    2.3338   -4.6000 H   0  0  0  0  0  0  0  0  0  0  0  0
   -2.6187    0.9298   -5.9025 H   0  0  0  0  0  0  0  0  0  0  0  0
   -3.9984   -1.8777   -5.6705 Si  0  0  0  0  0  4  0  0  0  0  0  0
   -3.4414   -0.8331   -6.5184 H   0  0  0  0  0  0  0  0  0  0  0  0
   -5.4594   -1.6270   -5.5828 H   0  0  0  0  0  0  0  0  0  0  0  0
    0.3894    0.2379   -6.0379 Si  0  0  0  0  0  4  0  0  0  0  0  0
    1.2398    1.3345   -6.4547 H   0  0  0  0  0  0  0  0  0  0  0  0
    1.1630   -0.5573   -5.0426 H   0  0  0  0  0  0  0  0  0  0  0  0
   -0.1341   -1.1413   -7.7040 Si  0  0  0  0  0  4  0  0  0  0  0  0
   -0.7975   -2.3213   -7.0904 H   0  0  0  0  0  0  0  0  0  0  0  0
    1.0942   -1.6525   -8.3360 H   0  0  0  0  0  0  0  0  0  0  0  0
   -3.7528   -3.8257   -6.7487 Si  0  0  0  0  0  4  0  0  0  0  0  0
   -4.4344   -4.9170   -6.0732 H   0  0  0  0  0  0  0  0  0  0  0  0
   -2.3244   -4.1741   -6.8764 H   0  0  0  0  0  0  0  0  0  0  0  0
   -4.5759   -3.5368   -8.8226 Si  0  0  0  0  0  4  0  0  0  0  0  0
   -5.4493   -4.6484   -9.2024 H   0  0  0  0  0  0  0  0  0  0  0  0
   -3.4866   -3.3939   -9.7880 H   0  0  0  0  0  0  0  0  0  0  0  0
   -1.5292   -0.2451   -9.1502 Si  0  0  0  0  0  4  0  0  0  0  0  0
   -2.6006    0.4368   -8.4442 H   0  0  0  0  0  0  0  0  0  0  0  0
   -2.1291   -1.3339   -9.9611 H   0  0  0  0  0  0  0  0  0  0  0  0
   -5.8052   -1.6646   -8.9221 Si  0  0  0  0  0  4  0  0  0  0  0  0
   -6.2714   -1.5089  -10.2868 H   0  0  0  0  0  0  0  0  0  0  0  0
   -4.9592   -0.5036   -8.5593 H   0  0  0  0  0  0  0  0  0  0  0  0
   -0.5618    1.1804  -10.5436 Si  0  0  0  0  0  4  0  0  0  0  0  0
   -1.6300    1.7374  -11.4080 H   0  0  0  0  0  0  0  0  0  0  0  0
    0.0049    2.3337   -9.8105 H   0  0  0  0  0  0  0  0  0  0  0  0
    0.9328    0.2105  -11.8592 Si  0  0  0  0  0  4  0  0  0  0  0  0
    0.8036    0.6814  -13.2664 H   0  0  0  0  0  0  0  0  0  0  0  0
    0.8048   -1.2377  -11.8863 H   0  0  0  0  0  0  0  0  0  0  0  0
    2.2756    0.6175  -11.4183 H   0  0  0  0  0  0  0  0  0  0  0  0
   -7.5140   -1.7701   -7.4919 Si  0  0  0  0  0  4  0  0  0  0  0  0
   -7.6237   -0.5029   -6.7317 H   0  0  0  0  0  0  0  0  0  0  0  0
   -7.2538   -2.8955   -6.5693 H   0  0  0  0  0  0  0  0  0  0  0  0
   -8.7475   -2.0517   -8.2066 H   0  0  0  0  0  0  0  0  0  0  0  0
  1  2  1  0
  1  5  1  0
  2  3  1  0
  2  4  1  0
  2  8  1  0
  5  6  1  0
  5  7  1  0
  5 11  1  0
  8  9  1  0
  8 10  1  0
  8 17  1  0
 11 12  1  0
 11 13  1  0
 11 14  1  0
 14 15  1  0
 14 16  1  0
 14 23  1  0
 17 18  1  0
 17 19  1  0
 17 20  1  0
 20 21  1  0
 20 22  1  0
 20 26  1  0
 23 24  1  0
 23 25  1  0
 23 29  1  0
 26 27  1  0
 26 28  1  0
 26 36  1  0
 29 30  1  0
 29 31  1  0
 29 32  1  0
 32 33  1  0
 32 34  1  0
 32 35  1  0
 36 37  1  0
 36 38  1  0
 36 39  1  0
M  CHG  1   1   1
M  RAD  1   1   2
M  END
$$$$

     RDKit          3D

 39 38  0  0  0  0  0  0  0  0999 V2000
   -1.8616   -0.2274   -3.2626 S   0  0  0  0  0  2  0  0  0  0  0  0
   -3.6306   -0.2008   -4.5088 Si  0  0  0  0  0  4  0  0  0  0  0  0
   -3.5174   -1.2574   -5.5180 H   0  0  0  0  0  0  0  0  0  0  0  0
   -4.7999   -0.4207   -3.6781 H   0  0  0  0  0  0  0  0  0  0  0  0
   -0.1927    0.5107   -4.4324 Si  0  0  0  0  0  4  0  0  0  0  0  0
   -0.1030    1.9658   -4.1213 H   0  0  0  0  0  0  0  0  0  0  0  0
    1.0326   -0.1582   -4.0351 H   0  0  0  0  0  0  0  0  0  0  0  0
   -3.8228    1.7702   -5.5540 Si  0  0  0  0  0  4  0  0  0  0  0  0
   -2.4922    2.3311   -5.8168 H   0  0  0  0  0  0  0  0  0  0  0  0
   -4.6175    2.6835   -4.7328 H   0  0  0  0  0  0  0  0  0  0  0  0
   -0.7021    0.2898   -6.5615 Si  0  0  0  0  0  4  0  0  0  0  0  0
   -2.0554   -0.3027   -6.7562 H   0  0  0  0  0  0  0  0  0  0  0  0
   -0.6831    1.6024   -7.2635 H   0  0  0  0  0  0  0  0  0  0  0  0
    0.7320   -1.0309   -7.6537 Si  0  0  0  0  0  4  0  0  0  0  0  0
    2.0998   -0.4812   -7.5816 H   0  0  0  0  0  0  0  0  0  0  0  0
    0.7113   -2.4056   -7.1277 H   0  0  0  0  0  0  0  0  0  0  0  0
   -4.8942    1.4473   -7.5036 Si  0  0  0  0  0  4  0  0  0  0  0  0
   -5.6327    2.6718   -7.8459 H   0  0  0  0  0  0  0  0  0  0  0  0
   -3.9320    1.0865   -8.5532 H   0  0  0  0  0  0  0  0  0  0  0  0
   -6.3612   -0.2008   -7.2011 Si  0  0  0  0  0  4  0  0  0  0  0  0
   -5.7043   -1.2968   -6.4587 H   0  0  0  0  0  0  0  0  0  0  0  0
   -7.4510    0.3178   -6.3646 H   0  0  0  0  0  0  0  0  0  0  0  0
    0.0253   -1.1169   -9.7818 Si  0  0  0  0  0  4  0  0  0  0  0  0
    1.1786   -1.0227  -10.7061 H   0  0  0  0  0  0  0  0  0  0  0  0
   -0.8309    0.0579  -10.0959 H   0  0  0  0  0  0  0  0  0  0  0  0
   -7.1694   -0.9602   -9.1266 Si  0  0  0  0  0  4  0  0  0  0  0  0
   -8.6332   -1.1469   -8.9985 H   0  0  0  0  0  0  0  0  0  0  0  0
   -6.9140   -0.0148  -10.2137 H   0  0  0  0  0  0  0  0  0  0  0  0
   -1.1709   -2.9392  -10.1724 Si  0  0  0  0  0  4  0  0  0  0  0  0
   -0.3158   -3.9450  -10.8275 H   0  0  0  0  0  0  0  0  0  0  0  0
   -2.3338   -2.6286  -11.0373 H   0  0  0  0  0  0  0  0  0  0  0  0
   -1.9911   -3.8139   -8.2835 Si  0  0  0  0  0  4  0  0  0  0  0  0
   -3.0278   -2.9240   -7.7603 H   0  0  0  0  0  0  0  0  0  0  0  0
   -0.9217   -4.0378   -7.3013 H   0  0  0  0  0  0  0  0  0  0  0  0
   -2.5800   -5.1185   -8.6307 H   0  0  0  0  0  0  0  0  0  0  0  0
   -6.2484   -2.9600   -9.5518 Si  0  0  0  0  0  4  0  0  0  0  0  0
   -6.2234   -3.6990   -8.2850 H   0  0  0  0  0  0  0  0  0  0  0  0
   -4.8860   -2.7269  -10.0609 H   0  0  0  0  0  0  0  0  0  0  0  0
   -7.0495   -3.6664  -10.5612 H   0  0  0  0  0  0  0  0  0  0  0  0
  1  2  1  0
  1  5  1  0
  2  3  1  0
  2  4  1  0
  2  8  1  0
  5  6  1  0
  5  7  1  0
  5 11  1  0
  8  9  1  0
  8 10  1  0
  8 17  1  0
 11 12  1  0
 11 13  1  0
 11 14  1  0
 14 15  1  0
 14 16  1  0
 14 23  1  0
 17 18  1  0
 17 19  1  0
 17 20  1  0
 20 21  1  0
 20 22  1  0
 20 26  1  0
 23 24  1  0
 23 25  1  0
 23 29  1  0
 26 27  1  0
 26 28  1  0
 26 36  1  0
 29 30  1  0
 29 31  1  0
 29 32  1  0
 32 33  1  0
 32 34  1  0
 32 35  1  0
 36 37  1  0
 36 38  1  0
 36 39  1  0
M  CHG  1   1   1
M  RAD  1   1   2
M  END
$$$$
