
     RDKit          3D

 39 38  0  0  0  0  0  0  0  0999 V2000
    0.4962    0.7833   -2.6788 S   0  0  0  0  0  2  0  0  0  0  0  0
   -0.6216    0.1719   -4.3733 Si  0  0  0  0  0  4  0  0  0  0  0  0
   -2.0204   -0.0557   -3.9321 H   0  0  0  0  0  0  0  0  0  0  0  0
   -0.1638   -1.1347   -4.9148 H   0  0  0  0  0  0  0  0  0  0  0  0
    2.5346    1.0815   -3.0176 Si  0  0  0  0  0  4  0  0  0  0  0  0
    2.9378    2.4044   -2.4602 H   0  0  0  0  0  0  0  0  0  0  0  0
    3.3158    0.0846   -2.2314 H   0  0  0  0  0  0  0  0  0  0  0  0
   -0.6887    1.7328   -5.9586 Si  0  0  0  0  0  4  0  0  0  0  0  0
   -2.0725    1.8943   -6.4885 H   0  0  0  0  0  0  0  0  0  0  0  0
    0.1327    1.3153   -7.1041 H   0  0  0  0  0  0  0  0  0  0  0  0
    3.1875    0.9815   -5.1087 Si  0  0  0  0  0  4  0  0  0  0  0  0
    4.4814    1.7152   -5.2228 H   0  0  0  0  0  0  0  0  0  0  0  0
    2.2782    1.5856   -6.0634 H   0  0  0  0  0  0  0  0  0  0  0  0
    3.6163   -1.1225   -5.7713 Si  0  0  0  0  0  4  0  0  0  0  0  0
    5.0300   -1.4440   -5.4790 H   0  0  0  0  0  0  0  0  0  0  0  0
    2.7945   -2.0830   -5.0603 H   0  0  0  0  0  0  0  0  0  0  0  0
   -0.0699    3.7242   -5.1676 Si  0  0  0  0  0  4  0  0  0  0  0  0
   -1.1741    4.2349   -4.3387 H   0  0  0  0  0  0  0  0  0  0  0  0
    1.1403    3.6320   -4.3399 H   0  0  0  0  0  0  0  0  0  0  0  0
    0.3192    5.0677   -6.9207 Si  0  0  0  0  0  4  0  0  0  0  0  0
    1.7677    5.3349   -7.0579 H   0  0  0  0  0  0  0  0  0  0  0  0
   -0.4442    6.3122   -6.7210 H   0  0  0  0  0  0  0  0  0  0  0  0
    3.3598   -1.2367   -7.9854 Si  0  0  0  0  0  4  0  0  0  0  0  0
    4.6239   -1.5643   -8.6667 H   0  0  0  0  0  0  0  0  0  0  0  0
    2.8939    0.0600   -8.5266 H   0  0  0  0  0  0  0  0  0  0  0  0
   -0.4098    4.1234   -8.8021 Si  0  0  0  0  0  4  0  0  0  0  0  0
   -1.6235    4.7523   -9.3065 H   0  0  0  0  0  0  0  0  0  0  0  0
   -0.7575    2.7083   -8.4952 H   0  0  0  0  0  0  0  0  0  0  0  0
    1.8583   -2.8079   -8.4561 Si  0  0  0  0  0  4  0  0  0  0  0  0
    2.2818   -3.5314   -9.6620 H   0  0  0  0  0  0  0  0  0  0  0  0
    1.7062   -3.7034   -7.3033 H   0  0  0  0  0  0  0  0  0  0  0  0
   -0.1096   -1.8339   -8.8717 Si  0  0  0  0  0  4  0  0  0  0  0  0
   -1.1094   -2.8783   -9.1852 H   0  0  0  0  0  0  0  0  0  0  0  0
    0.0377   -0.9001  -10.0066 H   0  0  0  0  0  0  0  0  0  0  0  0
   -0.5327   -1.0547   -7.7193 H   0  0  0  0  0  0  0  0  0  0  0  0
    1.1617    4.0857  -10.3725 Si  0  0  0  0  0  4  0  0  0  0  0  0
    2.1944    3.0908  -10.0885 H   0  0  0  0  0  0  0  0  0  0  0  0
    1.7736    5.3931  -10.5665 H   0  0  0  0  0  0  0  0  0  0  0  0
    0.5124    3.6943  -11.6431 H   0  0  0  0  0  0  0  0  0  0  0  0
  1  2  1  0
  1  5  1  0
  2  3  1  0
  2  4  1  0
  2  8  1  0
  5  6  1  0
  5  7  1  0
  5 11  1  0
  8  9  1  0
  8 10  1  0
  8 17  1  0
 11 12  1  0
 11 13  1  0
 11 14  1  0
 14 15  1  0
 14 16  1  0
 14 23  1  0
 17 18  1  0
 17 19  1  0
 17 20  1  0
 20 21  1  0
 20 22  1  0
 20 26  1  0
 23 24  1  0
 23 25  1  0
 23 29  1  0
 26 27  1  0
 26 28  1  0
 26 36  1  0
 29 30  1  0
 29 31  1  0
 29 32  1  0
 32 33  1  0
 32 34  1  0
 32 35  1  0
 36 37  1  0
 36 38  1  0
 36 39  1  0
M  CHG  1   1   1
M  RAD  1   1   2
M  END
$$$$

     RDKit          3D

 39 38  0  0  0  0  0  0  0  0999 V2000
    0.4962    0.7833   -2.6788 S   0  0  0  0  0  2  0  0  0  0  0  0
    0.3763    2.9249   -3.0037 Si  0  0  0  0  0  4  0  0  0  0  0  0
   -0.6453    3.4175   -2.0464 H   0  0  0  0  0  0  0  0  0  0  0  0
    1.6787    3.4751   -2.6870 H   0  0  0  0  0  0  0  0  0  0  0  0
    2.4584    0.0573   -3.0413 Si  0  0  0  0  0  4  0  0  0  0  0  0
    2.7763   -0.9815   -2.0348 H   0  0  0  0  0  0  0  0  0  0  0  0
    3.4058    1.1823   -2.8847 H   0  0  0  0  0  0  0  0  0  0  0  0
   -0.2283    3.2450   -5.1052 Si  0  0  0  0  0  4  0  0  0  0  0  0
    0.6351    2.4051   -5.9655 H   0  0  0  0  0  0  0  0  0  0  0  0
   -1.6019    2.7079   -5.2712 H   0  0  0  0  0  0  0  0  0  0  0  0
    2.6684   -0.8756   -5.0484 Si  0  0  0  0  0  4  0  0  0  0  0  0
    2.7016   -2.3581   -4.9555 H   0  0  0  0  0  0  0  0  0  0  0  0
    1.5312   -0.5538   -5.9322 H   0  0  0  0  0  0  0  0  0  0  0  0
    4.6113   -0.2323   -5.9442 Si  0  0  0  0  0  4  0  0  0  0  0  0
    5.6542   -1.2577   -5.7766 H   0  0  0  0  0  0  0  0  0  0  0  0
    5.0901    0.9763   -5.2363 H   0  0  0  0  0  0  0  0  0  0  0  0
   -0.1934    5.3328   -5.7495 Si  0  0  0  0  0  4  0  0  0  0  0  0
    0.3380    5.3994   -7.1404 H   0  0  0  0  0  0  0  0  0  0  0  0
   -1.5725    5.8770   -5.8160 H   0  0  0  0  0  0  0  0  0  0  0  0
    1.0262    6.6645   -4.4891 Si  0  0  0  0  0  4  0  0  0  0  0  0
    0.8861    6.3956   -3.0533 H   0  0  0  0  0  0  0  0  0  0  0  0
    0.5431    8.0610   -4.6925 H   0  0  0  0  0  0  0  0  0  0  0  0
    4.3893    0.2987   -8.0923 Si  0  0  0  0  0  4  0  0  0  0  0  0
    3.3964   -0.5404   -8.7540 H   0  0  0  0  0  0  0  0  0  0  0  0
    5.7140    0.1201   -8.7308 H   0  0  0  0  0  0  0  0  0  0  0  0
    3.1854    6.6617   -5.1110 Si  0  0  0  0  0  4  0  0  0  0  0  0
    3.7237    8.0284   -5.1648 H   0  0  0  0  0  0  0  0  0  0  0  0
    3.3056    6.0817   -6.4472 H   0  0  0  0  0  0  0  0  0  0  0  0
    3.8535    2.4558   -8.2896 Si  0  0  0  0  0  4  0  0  0  0  0  0
    3.6356    3.0265   -6.9412 H   0  0  0  0  0  0  0  0  0  0  0  0
    4.9215    3.2302   -8.9378 H   0  0  0  0  0  0  0  0  0  0  0  0
    1.9511    2.7084   -9.4370 Si  0  0  0  0  0  4  0  0  0  0  0  0
    2.0066    3.9979  -10.1252 H   0  0  0  0  0  0  0  0  0  0  0  0
    0.8212    2.6222   -8.5042 H   0  0  0  0  0  0  0  0  0  0  0  0
    1.8573    1.6011  -10.4085 H   0  0  0  0  0  0  0  0  0  0  0  0
    4.3503    5.5313   -3.5917 Si  0  0  0  0  0  4  0  0  0  0  0  0
    4.3249    4.1062   -3.9805 H   0  0  0  0  0  0  0  0  0  0  0  0
    5.7293    6.0572   -3.6046 H   0  0  0  0  0  0  0  0  0  0  0  0
    3.7202    5.7250   -2.2808 H   0  0  0  0  0  0  0  0  0  0  0  0
  1  2  1  0
  1  5  1  0
  2  3  1  0
  2  4  1  0
  2  8  1  0
  5  6  1  0
  5  7  1  0
  5 11  1  0
  8  9  1  0
  8 10  1  0
  8 17  1  0
 11 12  1  0
 11 13  1  0
 11 14  1  0
 14 15  1  0
 14 16  1  0
 14 23  1  0
 17 18  1  0
 17 19  1  0
 17 20  1  0
 20 21  1  0
 20 22  1  0
 20 26  1  0
 23 24  1  0
 23 25  1  0
 23 29  1  0
 26 27  1  0
 26 28  1  0
 26 36  1  0
 29 30  1  0
 29 31  1  0
 29 32  1  0
 32 33  1  0
 32 34  1  0
 32 35  1  0
 36 37  1  0
 36 38  1  0
 36 39  1  0
M  CHG  1   1   1
M  RAD  1   1   2
M  END
$$$$
