
     RDKit          3D

 39 38  0  0  0  0  0  0  0  0999 V2000
    1.9855   -0.0668   -2.5035 S   0  0  0  0  0  2  0  0  0  0  0  0
    3.0848   -1.9124   -2.8230 Si  0  0  0  0  0  4  0  0  0  0  0  0
    4.4579   -1.5660   -3.2401 H   0  0  0  0  0  0  0  0  0  0  0  0
    3.0370   -2.6962   -1.6075 H   0  0  0  0  0  0  0  0  0  0  0  0
    1.6840    0.7248   -4.5034 Si  0  0  0  0  0  4  0  0  0  0  0  0
    0.6957   -0.0689   -5.2329 H   0  0  0  0  0  0  0  0  0  0  0  0
    1.2600    2.1157   -4.4320 H   0  0  0  0  0  0  0  0  0  0  0  0
    2.0203   -2.9316   -4.5235 Si  0  0  0  0  0  4  0  0  0  0  0  0
    0.7437   -3.4404   -4.0042 H   0  0  0  0  0  0  0  0  0  0  0  0
    1.7356   -1.8732   -5.5231 H   0  0  0  0  0  0  0  0  0  0  0  0
    3.6981    0.5462   -5.5044 Si  0  0  0  0  0  4  0  0  0  0  0  0
    3.5927    0.6894   -6.9423 H   0  0  0  0  0  0  0  0  0  0  0  0
    4.2243   -0.8133   -5.2079 H   0  0  0  0  0  0  0  0  0  0  0  0
    5.0235    2.0814   -4.5742 Si  0  0  0  0  0  4  0  0  0  0  0  0
    6.0936    1.4036   -3.8168 H   0  0  0  0  0  0  0  0  0  0  0  0
    4.3024    2.9622   -3.6638 H   0  0  0  0  0  0  0  0  0  0  0  0
    3.2676   -4.4964   -5.4491 Si  0  0  0  0  0  4  0  0  0  0  0  0
    4.6880   -4.2282   -5.1604 H   0  0  0  0  0  0  0  0  0  0  0  0
    2.9542   -5.7894   -4.7770 H   0  0  0  0  0  0  0  0  0  0  0  0
    2.9309   -4.6504   -7.6445 Si  0  0  0  0  0  4  0  0  0  0  0  0
    2.3350   -5.9709   -7.9347 H   0  0  0  0  0  0  0  0  0  0  0  0
    4.2308   -4.5652   -8.3259 H   0  0  0  0  0  0  0  0  0  0  0  0
    5.9340    3.2885   -6.2163 Si  0  0  0  0  0  4  0  0  0  0  0  0
    6.3025    4.6120   -5.7135 H   0  0  0  0  0  0  0  0  0  0  0  0
    7.1227    2.5463   -6.6910 H   0  0  0  0  0  0  0  0  0  0  0  0
    1.5993   -3.0500   -8.4040 Si  0  0  0  0  0  4  0  0  0  0  0  0
    0.7361   -2.4860   -7.3475 H   0  0  0  0  0  0  0  0  0  0  0  0
    0.6965   -3.6389   -9.4246 H   0  0  0  0  0  0  0  0  0  0  0  0
    4.5398    3.4942   -7.9445 Si  0  0  0  0  0  4  0  0  0  0  0  0
    4.7586    2.3986   -8.8998 H   0  0  0  0  0  0  0  0  0  0  0  0
    4.8008    4.7745   -8.6034 H   0  0  0  0  0  0  0  0  0  0  0  0
    2.4145    3.4514   -7.2914 Si  0  0  0  0  0  4  0  0  0  0  0  0
    2.3376    3.8022   -5.8718 H   0  0  0  0  0  0  0  0  0  0  0  0
    1.6341    4.4611   -8.0428 H   0  0  0  0  0  0  0  0  0  0  0  0
    1.7743    2.1508   -7.5717 H   0  0  0  0  0  0  0  0  0  0  0  0
    2.7549   -1.4324   -9.4389 Si  0  0  0  0  0  4  0  0  0  0  0  0
    2.0152   -0.1711   -9.3632 H   0  0  0  0  0  0  0  0  0  0  0  0
    2.9209   -1.7544  -10.8739 H   0  0  0  0  0  0  0  0  0  0  0  0
    4.0889   -1.2659   -8.8226 H   0  0  0  0  0  0  0  0  0  0  0  0
  1  2  1  0
  1  5  1  0
  2  3  1  0
  2  4  1  0
  2  8  1  0
  5  6  1  0
  5  7  1  0
  5 11  1  0
  8  9  1  0
  8 10  1  0
  8 17  1  0
 11 12  1  0
 11 13  1  0
 11 14  1  0
 14 15  1  0
 14 16  1  0
 14 23  1  0
 17 18  1  0
 17 19  1  0
 17 20  1  0
 20 21  1  0
 20 22  1  0
 20 26  1  0
 23 24  1  0
 23 25  1  0
 23 29  1  0
 26 27  1  0
 26 28  1  0
 26 36  1  0
 29 30  1  0
 29 31  1  0
 29 32  1  0
 32 33  1  0
 32 34  1  0
 32 35  1  0
 36 37  1  0
 36 38  1  0
 36 39  1  0
M  CHG  1   1   1
M  RAD  1   1   2
M  END
$$$$

     RDKit          3D

 39 38  0  0  0  0  0  0  0  0999 V2000
    1.9855   -0.0668   -2.5035 S   0  0  0  0  0  2  0  0  0  0  0  0
    2.8472    1.6203   -3.4624 Si  0  0  0  0  0  4  0  0  0  0  0  0
    2.8883    2.7298   -2.4884 H   0  0  0  0  0  0  0  0  0  0  0  0
    4.2512    1.3857   -3.8720 H   0  0  0  0  0  0  0  0  0  0  0  0
    2.0364   -1.8186   -3.6972 Si  0  0  0  0  0  4  0  0  0  0  0  0
    1.0475   -1.7861   -4.7973 H   0  0  0  0  0  0  0  0  0  0  0  0
    1.6439   -2.9668   -2.8405 H   0  0  0  0  0  0  0  0  0  0  0  0
    1.6273    2.3174   -5.1993 Si  0  0  0  0  0  4  0  0  0  0  0  0
    0.6080    1.3099   -5.5754 H   0  0  0  0  0  0  0  0  0  0  0  0
    0.8574    3.5440   -4.8470 H   0  0  0  0  0  0  0  0  0  0  0  0
    4.0568   -2.2543   -4.5061 Si  0  0  0  0  0  4  0  0  0  0  0  0
    5.0216   -1.1951   -4.1579 H   0  0  0  0  0  0  0  0  0  0  0  0
    4.6175   -3.5127   -3.9370 H   0  0  0  0  0  0  0  0  0  0  0  0
    3.9475   -2.5574   -6.7195 Si  0  0  0  0  0  4  0  0  0  0  0  0
    5.2460   -2.1578   -7.2968 H   0  0  0  0  0  0  0  0  0  0  0  0
    3.7547   -3.9800   -7.0562 H   0  0  0  0  0  0  0  0  0  0  0  0
    2.9174    2.8185   -6.9504 Si  0  0  0  0  0  4  0  0  0  0  0  0
    2.6558    1.8927   -8.0501 H   0  0  0  0  0  0  0  0  0  0  0  0
    2.6110    4.1812   -7.4674 H   0  0  0  0  0  0  0  0  0  0  0  0
    5.0738    2.7769   -6.4217 Si  0  0  0  0  0  4  0  0  0  0  0  0
    5.3711    4.0151   -5.6642 H   0  0  0  0  0  0  0  0  0  0  0  0
    5.4154    1.6191   -5.5940 H   0  0  0  0  0  0  0  0  0  0  0  0
    2.2602   -1.4024   -7.6068 Si  0  0  0  0  0  4  0  0  0  0  0  0
    1.4722   -0.7058   -6.5696 H   0  0  0  0  0  0  0  0  0  0  0  0
    2.8384   -0.4464   -8.5696 H   0  0  0  0  0  0  0  0  0  0  0  0
    6.2834    2.6985   -8.3088 Si  0  0  0  0  0  4  0  0  0  0  0  0
    7.2189    1.5701   -8.2973 H   0  0  0  0  0  0  0  0  0  0  0  0
    7.0908    3.9255   -8.4242 H   0  0  0  0  0  0  0  0  0  0  0  0
    0.8765   -2.7477   -8.7418 Si  0  0  0  0  0  4  0  0  0  0  0  0
   -0.4877   -2.7061   -8.1701 H   0  0  0  0  0  0  0  0  0  0  0  0
    1.3221   -4.1555   -8.6541 H   0  0  0  0  0  0  0  0  0  0  0  0
    0.8379   -2.2022  -10.9120 Si  0  0  0  0  0  4  0  0  0  0  0  0
   -0.4911   -2.3314  -11.4893 H   0  0  0  0  0  0  0  0  0  0  0  0
    1.2582   -0.7766  -11.0152 H   0  0  0  0  0  0  0  0  0  0  0  0
    1.8595   -2.9771  -11.6281 H   0  0  0  0  0  0  0  0  0  0  0  0
    4.9354    2.5217  -10.0745 Si  0  0  0  0  0  4  0  0  0  0  0  0
    4.2791    1.2113  -10.0418 H   0  0  0  0  0  0  0  0  0  0  0  0
    5.7200    2.6818  -11.3006 H   0  0  0  0  0  0  0  0  0  0  0  0
    3.8860    3.5528  -10.0061 H   0  0  0  0  0  0  0  0  0  0  0  0
  1  2  1  0
  1  5  1  0
  2  3  1  0
  2  4  1  0
  2  8  1  0
  5  6  1  0
  5  7  1  0
  5 11  1  0
  8  9  1  0
  8 10  1  0
  8 17  1  0
 11 12  1  0
 11 13  1  0
 11 14  1  0
 14 15  1  0
 14 16  1  0
 14 23  1  0
 17 18  1  0
 17 19  1  0
 17 20  1  0
 20 21  1  0
 20 22  1  0
 20 26  1  0
 23 24  1  0
 23 25  1  0
 23 29  1  0
 26 27  1  0
 26 28  1  0
 26 36  1  0
 29 30  1  0
 29 31  1  0
 29 32  1  0
 32 33  1  0
 32 34  1  0
 32 35  1  0
 36 37  1  0
 36 38  1  0
 36 39  1  0
M  CHG  1   1   1
M  RAD  1   1   2
M  END
$$$$

     RDKit          3D

 39 38  0  0  0  0  0  0  0  0999 V2000
    1.9855   -0.0668   -2.5035 S   0  0  0  0  0  2  0  0  0  0  0  0
    1.7232    0.9723   -4.3364 Si  0  0  0  0  0  4  0  0  0  0  0  0
    0.8619    2.1444   -4.0798 H   0  0  0  0  0  0  0  0  0  0  0  0
    2.9951    1.5110   -4.8715 H   0  0  0  0  0  0  0  0  0  0  0  0
    3.3679   -1.6684   -2.6453 Si  0  0  0  0  0  4  0  0  0  0  0  0
    2.8145   -2.8349   -3.3680 H   0  0  0  0  0  0  0  0  0  0  0  0
    3.6530   -2.1490   -1.2691 H   0  0  0  0  0  0  0  0  0  0  0  0
    0.6897   -0.2769   -5.8734 Si  0  0  0  0  0  4  0  0  0  0  0  0
    0.6463   -1.7003   -5.4645 H   0  0  0  0  0  0  0  0  0  0  0  0
   -0.7354    0.1347   -6.0190 H   0  0  0  0  0  0  0  0  0  0  0  0
    5.3016   -1.0628   -3.5507 Si  0  0  0  0  0  4  0  0  0  0  0  0
    5.2765    0.3422   -3.9969 H   0  0  0  0  0  0  0  0  0  0  0  0
    6.4206   -1.1539   -2.5701 H   0  0  0  0  0  0  0  0  0  0  0  0
    5.8249   -2.4399   -5.2338 Si  0  0  0  0  0  4  0  0  0  0  0  0
    6.6426   -1.6829   -6.2019 H   0  0  0  0  0  0  0  0  0  0  0  0
    6.6558   -3.5648   -4.7666 H   0  0  0  0  0  0  0  0  0  0  0  0
    1.6536   -0.0656   -7.8755 Si  0  0  0  0  0  4  0  0  0  0  0  0
    2.2563   -1.3335   -8.2807 H   0  0  0  0  0  0  0  0  0  0  0  0
    0.6475    0.2734   -8.9200 H   0  0  0  0  0  0  0  0  0  0  0  0
    3.1882    1.5395   -7.8840 Si  0  0  0  0  0  4  0  0  0  0  0  0
    2.4752    2.8376   -7.9293 H   0  0  0  0  0  0  0  0  0  0  0  0
    4.0315    1.5012   -6.6884 H   0  0  0  0  0  0  0  0  0  0  0  0
    3.9923   -3.2820   -6.1829 Si  0  0  0  0  0  4  0  0  0  0  0  0
    2.7666   -2.8416   -5.4860 H   0  0  0  0  0  0  0  0  0  0  0  0
    3.9883   -2.8508   -7.5934 H   0  0  0  0  0  0  0  0  0  0  0  0
    4.4889    1.2919   -9.6943 Si  0  0  0  0  0  4  0  0  0  0  0  0
    5.9070    1.2280   -9.3286 H   0  0  0  0  0  0  0  0  0  0  0  0
    4.3249    2.4589  -10.5785 H   0  0  0  0  0  0  0  0  0  0  0  0
    4.0348   -5.5204   -6.1630 Si  0  0  0  0  0  4  0  0  0  0  0  0
    2.8863   -6.0638   -5.4046 H   0  0  0  0  0  0  0  0  0  0  0  0
    5.2531   -6.0174   -5.4870 H   0  0  0  0  0  0  0  0  0  0  0  0
    4.0586   -6.3349   -8.2475 Si  0  0  0  0  0  4  0  0  0  0  0  0
    3.2587   -7.5432   -8.3762 H   0  0  0  0  0  0  0  0  0  0  0  0
    3.4766   -5.2896   -9.1353 H   0  0  0  0  0  0  0  0  0  0  0  0
    5.4488   -6.5097   -8.6871 H   0  0  0  0  0  0  0  0  0  0  0  0
    3.9257   -0.5635  -10.7927 Si  0  0  0  0  0  4  0  0  0  0  0  0
    4.2712   -1.7262   -9.9695 H   0  0  0  0  0  0  0  0  0  0  0  0
    4.6345   -0.6018  -12.0736 H   0  0  0  0  0  0  0  0  0  0  0  0
    2.4705   -0.5875  -11.0180 H   0  0  0  0  0  0  0  0  0  0  0  0
  1  2  1  0
  1  5  1  0
  2  3  1  0
  2  4  1  0
  2  8  1  0
  5  6  1  0
  5  7  1  0
  5 11  1  0
  8  9  1  0
  8 10  1  0
  8 17  1  0
 11 12  1  0
 11 13  1  0
 11 14  1  0
 14 15  1  0
 14 16  1  0
 14 23  1  0
 17 18  1  0
 17 19  1  0
 17 20  1  0
 20 21  1  0
 20 22  1  0
 20 26  1  0
 23 24  1  0
 23 25  1  0
 23 29  1  0
 26 27  1  0
 26 28  1  0
 26 36  1  0
 29 30  1  0
 29 31  1  0
 29 32  1  0
 32 33  1  0
 32 34  1  0
 32 35  1  0
 36 37  1  0
 36 38  1  0
 36 39  1  0
M  CHG  1   1   1
M  RAD  1   1   2
M  END
$$$$
