
     RDKit          3D

 39 38  0  0  0  0  0  0  0  0999 V2000
    0.0737    0.2266    3.1799 S   0  0  0  0  0  2  0  0  0  0  0  0
    0.0579    2.2265    4.0066 Si  0  0  0  0  0  4  0  0  0  0  0  0
    1.1058    2.9946    3.3280 H   0  0  0  0  0  0  0  0  0  0  0  0
   -1.2565    2.8360    3.8415 H   0  0  0  0  0  0  0  0  0  0  0  0
    1.8586   -0.7926    3.8714 Si  0  0  0  0  0  4  0  0  0  0  0  0
    2.9476    0.1666    4.0103 H   0  0  0  0  0  0  0  0  0  0  0  0
    2.2083   -1.7232    2.7591 H   0  0  0  0  0  0  0  0  0  0  0  0
    0.5391    1.9757    6.1948 Si  0  0  0  0  0  4  0  0  0  0  0  0
   -0.5788    1.2296    6.7841 H   0  0  0  0  0  0  0  0  0  0  0  0
    1.8042    1.2194    6.2515 H   0  0  0  0  0  0  0  0  0  0  0  0
    1.4709   -1.9881    5.6731 Si  0  0  0  0  0  4  0  0  0  0  0  0
    0.1591   -1.5783    6.2373 H   0  0  0  0  0  0  0  0  0  0  0  0
    1.3528   -3.4372    5.4020 H   0  0  0  0  0  0  0  0  0  0  0  0
    2.9803   -1.6957    7.2725 Si  0  0  0  0  0  4  0  0  0  0  0  0
    2.9722   -0.2792    7.7177 H   0  0  0  0  0  0  0  0  0  0  0  0
    2.5124   -2.4764    8.4514 H   0  0  0  0  0  0  0  0  0  0  0  0
    0.8545    3.9282    7.1810 Si  0  0  0  0  0  4  0  0  0  0  0  0
   -0.0878    4.9404    6.7384 H   0  0  0  0  0  0  0  0  0  0  0  0
    0.6751    3.7281    8.6472 H   0  0  0  0  0  0  0  0  0  0  0  0
    2.9719    4.6060    6.8981 Si  0  0  0  0  0  4  0  0  0  0  0  0
    3.2292    5.7375    7.8126 H   0  0  0  0  0  0  0  0  0  0  0  0
    3.2232    5.0271    5.5245 H   0  0  0  0  0  0  0  0  0  0  0  0
    4.9868   -2.4007    6.7447 Si  0  0  0  0  0  4  0  0  0  0  0  0
    5.9808   -1.6148    7.5324 H   0  0  0  0  0  0  0  0  0  0  0  0
    5.1698   -3.8080    7.2011 H   0  0  0  0  0  0  0  0  0  0  0  0
    4.3664    2.9672    7.4356 Si  0  0  0  0  0  4  0  0  0  0  0  0
    4.3609    1.9274    6.4086 H   0  0  0  0  0  0  0  0  0  0  0  0
    4.0272    2.4027    8.7533 H   0  0  0  0  0  0  0  0  0  0  0  0
    5.5007   -2.2314    4.6201 Si  0  0  0  0  0  4  0  0  0  0  0  0
    6.1920   -3.4732    4.1707 H   0  0  0  0  0  0  0  0  0  0  0  0
    4.3825   -2.0204    3.7308 H   0  0  0  0  0  0  0  0  0  0  0  0
    6.9620   -0.5583    4.2896 Si  0  0  0  0  0  4  0  0  0  0  0  0
    7.4660   -0.7058    2.8969 H   0  0  0  0  0  0  0  0  0  0  0  0
    6.3139    0.7325    4.4862 H   0  0  0  0  0  0  0  0  0  0  0  0
    8.0684   -0.7239    5.2160 H   0  0  0  0  0  0  0  0  0  0  0  0
    6.4348    3.8014    7.5848 Si  0  0  0  0  0  4  0  0  0  0  0  0
    6.6117    4.5035    8.8668 H   0  0  0  0  0  0  0  0  0  0  0  0
    6.7323    4.7109    6.4657 H   0  0  0  0  0  0  0  0  0  0  0  0
    7.4182    2.7031    7.5507 H   0  0  0  0  0  0  0  0  0  0  0  0
  1  2  1  0
  1  5  1  0
  2  3  1  0
  2  4  1  0
  2  8  1  0
  5  6  1  0
  5  7  1  0
  5 11  1  0
  8  9  1  0
  8 10  1  0
  8 17  1  0
 11 12  1  0
 11 13  1  0
 11 14  1  0
 14 15  1  0
 14 16  1  0
 14 23  1  0
 17 18  1  0
 17 19  1  0
 17 20  1  0
 20 21  1  0
 20 22  1  0
 20 26  1  0
 23 24  1  0
 23 25  1  0
 23 29  1  0
 26 27  1  0
 26 28  1  0
 26 36  1  0
 29 30  1  0
 29 31  1  0
 29 32  1  0
 32 33  1  0
 32 34  1  0
 32 35  1  0
 36 37  1  0
 36 38  1  0
 36 39  1  0
M  CHG  1   1   1
M  RAD  1   1   2
M  END
$$$$

     RDKit          3D

 39 38  0  0  0  0  0  0  0  0999 V2000
    0.0737    0.2266    3.1799 S   0  0  0  0  0  2  0  0  0  0  0  0
   -1.4484   -0.6339    4.3828 Si  0  0  0  0  0  4  0  0  0  0  0  0
   -2.8040   -0.2158    3.9662 H   0  0  0  0  0  0  0  0  0  0  0  0
   -1.3989   -2.1102    4.1855 H   0  0  0  0  0  0  0  0  0  0  0  0
    1.6441    1.1003    4.3233 Si  0  0  0  0  0  4  0  0  0  0  0  0
    2.2942    2.1268    3.4577 H   0  0  0  0  0  0  0  0  0  0  0  0
    1.1658    1.8096    5.5078 H   0  0  0  0  0  0  0  0  0  0  0  0
   -1.1100   -0.2291    6.5267 Si  0  0  0  0  0  4  0  0  0  0  0  0
   -0.2245    0.9281    6.7123 H   0  0  0  0  0  0  0  0  0  0  0  0
   -0.5001   -1.3610    7.2245 H   0  0  0  0  0  0  0  0  0  0  0  0
    3.2308   -0.3885    4.8359 Si  0  0  0  0  0  4  0  0  0  0  0  0
    4.5143    0.3439    4.9521 H   0  0  0  0  0  0  0  0  0  0  0  0
    3.3302   -1.3214    3.6936 H   0  0  0  0  0  0  0  0  0  0  0  0
    2.8077   -1.4354    6.7366 Si  0  0  0  0  0  4  0  0  0  0  0  0
    4.0993   -1.6948    7.4278 H   0  0  0  0  0  0  0  0  0  0  0  0
    1.9693   -0.6476    7.6366 H   0  0  0  0  0  0  0  0  0  0  0  0
   -3.0352    0.2725    7.5877 Si  0  0  0  0  0  4  0  0  0  0  0  0
   -3.7645   -0.9634    7.8940 H   0  0  0  0  0  0  0  0  0  0  0  0
   -3.8740    1.1286    6.7693 H   0  0  0  0  0  0  0  0  0  0  0  0
   -2.4211    1.3026    9.4991 Si  0  0  0  0  0  4  0  0  0  0  0  0
   -1.4154    2.3180    9.1122 H   0  0  0  0  0  0  0  0  0  0  0  0
   -3.5420    1.9587   10.1360 H   0  0  0  0  0  0  0  0  0  0  0  0
    1.8970   -3.4545    6.3520 Si  0  0  0  0  0  4  0  0  0  0  0  0
    2.9334   -4.3873    5.9194 H   0  0  0  0  0  0  0  0  0  0  0  0
    0.8951   -3.2855    5.2773 H   0  0  0  0  0  0  0  0  0  0  0  0
   -1.4304   -0.2127   10.7833 Si  0  0  0  0  0  4  0  0  0  0  0  0
   -1.6619   -1.5880   10.3106 H   0  0  0  0  0  0  0  0  0  0  0  0
   -1.9508   -0.1380   12.1565 H   0  0  0  0  0  0  0  0  0  0  0  0
    0.9373   -4.1521    8.2484 Si  0  0  0  0  0  4  0  0  0  0  0  0
    1.8424   -3.7928    9.3497 H   0  0  0  0  0  0  0  0  0  0  0  0
   -0.3245   -3.4210    8.4433 H   0  0  0  0  0  0  0  0  0  0  0  0
    0.5114   -6.3365    8.1899 Si  0  0  0  0  0  4  0  0  0  0  0  0
    1.1356   -6.9381    9.3899 H   0  0  0  0  0  0  0  0  0  0  0  0
   -0.9366   -6.5942    8.3096 H   0  0  0  0  0  0  0  0  0  0  0  0
    1.0166   -6.9571    6.9654 H   0  0  0  0  0  0  0  0  0  0  0  0
    0.7752    0.1125   10.8526 Si  0  0  0  0  0  4  0  0  0  0  0  0
    1.0434    1.4540   10.2910 H   0  0  0  0  0  0  0  0  0  0  0  0
    1.2808    0.0981   12.2388 H   0  0  0  0  0  0  0  0  0  0  0  0
    1.4889   -0.8847   10.0578 H   0  0  0  0  0  0  0  0  0  0  0  0
  1  2  1  0
  1  5  1  0
  2  3  1  0
  2  4  1  0
  2  8  1  0
  5  6  1  0
  5  7  1  0
  5 11  1  0
  8  9  1  0
  8 10  1  0
  8 17  1  0
 11 12  1  0
 11 13  1  0
 11 14  1  0
 14 15  1  0
 14 16  1  0
 14 23  1  0
 17 18  1  0
 17 19  1  0
 17 20  1  0
 20 21  1  0
 20 22  1  0
 20 26  1  0
 23 24  1  0
 23 25  1  0
 23 29  1  0
 26 27  1  0
 26 28  1  0
 26 36  1  0
 29 30  1  0
 29 31  1  0
 29 32  1  0
 32 33  1  0
 32 34  1  0
 32 35  1  0
 36 37  1  0
 36 38  1  0
 36 39  1  0
M  CHG  1   1   1
M  RAD  1   1   2
M  END
$$$$

     RDKit          3D

 39 38  0  0  0  0  0  0  0  0999 V2000
    0.0737    0.2266    3.1799 S   0  0  0  0  0  2  0  0  0  0  0  0
   -1.5535   -0.4073    4.3860 Si  0  0  0  0  0  4  0  0  0  0  0  0
   -2.8369    0.1968    3.9690 H   0  0  0  0  0  0  0  0  0  0  0  0
   -1.7128   -1.8763    4.1929 H   0  0  0  0  0  0  0  0  0  0  0  0
    1.7527    0.8732    4.3200 Si  0  0  0  0  0  4  0  0  0  0  0  0
    2.5403    1.7953    3.4511 H   0  0  0  0  0  0  0  0  0  0  0  0
    1.3803    1.6461    5.5027 H   0  0  0  0  0  0  0  0  0  0  0  0
   -1.1594   -0.0484    6.5286 Si  0  0  0  0  0  4  0  0  0  0  0  0
   -0.1194    0.9728    6.7104 H   0  0  0  0  0  0  0  0  0  0  0  0
   -0.7146   -1.2531    7.2293 H   0  0  0  0  0  0  0  0  0  0  0  0
    3.1139   -0.8232    4.8360 Si  0  0  0  0  0  4  0  0  0  0  0  0
    4.4880   -0.2788    4.9495 H   0  0  0  0  0  0  0  0  0  0  0  0
    3.0798   -1.7639    3.6963 H   0  0  0  0  0  0  0  0  0  0  0  0
    2.5492   -1.7947    6.7399 Si  0  0  0  0  0  4  0  0  0  0  0  0
    3.7919   -2.2318    7.4311 H   0  0  0  0  0  0  0  0  0  0  0  0
    1.8312   -0.8940    7.6380 H   0  0  0  0  0  0  0  0  0  0  0  0
   -2.9936    0.7227    7.5892 Si  0  0  0  0  0  4  0  0  0  0  0  0
   -3.8897   -0.3972    7.8993 H   0  0  0  0  0  0  0  0  0  0  0  0
   -3.7040    1.6863    6.7688 H   0  0  0  0  0  0  0  0  0  0  0  0
   -2.2386    1.6610    9.4973 Si  0  0  0  0  0  4  0  0  0  0  0  0
   -1.1001    2.5233    9.1070 H   0  0  0  0  0  0  0  0  0  0  0  0
   -3.2552    2.4705   10.1330 H   0  0  0  0  0  0  0  0  0  0  0  0
    1.3624   -3.6662    6.3615 Si  0  0  0  0  0  4  0  0  0  0  0  0
    2.2565   -4.7370    5.9310 H   0  0  0  0  0  0  0  0  0  0  0  0
    0.3934   -3.3605    5.2869 H   0  0  0  0  0  0  0  0  0  0  0  0
   -1.4704    0.0247   10.7853 Si  0  0  0  0  0  4  0  0  0  0  0  0
   -1.8940   -1.3055   10.3166 H   0  0  0  0  0  0  0  0  0  0  0  0
   -1.9738    0.1758   12.1585 H   0  0  0  0  0  0  0  0  0  0  0  0
    0.3156   -4.2162    8.2603 Si  0  0  0  0  0  4  0  0  0  0  0  0
    1.2634   -3.9851    9.3602 H   0  0  0  0  0  0  0  0  0  0  0  0
   -0.8303   -3.3139    8.4539 H   0  0  0  0  0  0  0  0  0  0  0  0
   -0.4142   -6.3188    8.2083 Si  0  0  0  0  0  4  0  0  0  0  0  0
    0.1200   -6.9992    9.4097 H   0  0  0  0  0  0  0  0  0  0  0  0
   -1.8839   -6.3694    8.3295 H   0  0  0  0  0  0  0  0  0  0  0  0
   -0.0027   -7.0079    6.9853 H   0  0  0  0  0  0  0  0  0  0  0  0
    0.7591    0.0357   10.8526 Si  0  0  0  0  0  4  0  0  0  0  0  0
    1.2133    1.3244   10.2869 H   0  0  0  0  0  0  0  0  0  0  0  0
    1.2589   -0.0461   12.2385 H   0  0  0  0  0  0  0  0  0  0  0  0
    1.3243   -1.0544   10.0602 H   0  0  0  0  0  0  0  0  0  0  0  0
  1  2  1  0
  1  5  1  0
  2  3  1  0
  2  4  1  0
  2  8  1  0
  5  6  1  0
  5  7  1  0
  5 11  1  0
  8  9  1  0
  8 10  1  0
  8 17  1  0
 11 12  1  0
 11 13  1  0
 11 14  1  0
 14 15  1  0
 14 16  1  0
 14 23  1  0
 17 18  1  0
 17 19  1  0
 17 20  1  0
 20 21  1  0
 20 22  1  0
 20 26  1  0
 23 24  1  0
 23 25  1  0
 23 29  1  0
 26 27  1  0
 26 28  1  0
 26 36  1  0
 29 30  1  0
 29 31  1  0
 29 32  1  0
 32 33  1  0
 32 34  1  0
 32 35  1  0
 36 37  1  0
 36 38  1  0
 36 39  1  0
M  CHG  1   1   1
M  RAD  1   1   2
M  END
$$$$

     RDKit          3D

 39 38  0  0  0  0  0  0  0  0999 V2000
    0.0737    0.2266    3.1799 S   0  0  0  0  0  2  0  0  0  0  0  0
    2.0864    0.4116    3.8660 Si  0  0  0  0  0  4  0  0  0  0  0  0
    2.5631    1.7883    3.7264 H   0  0  0  0  0  0  0  0  0  0  0  0
    2.9356   -0.5248    3.1224 H   0  0  0  0  0  0  0  0  0  0  0  0
   -1.1129    1.9222    3.6298 Si  0  0  0  0  0  4  0  0  0  0  0  0
   -1.1156    2.8169    2.4574 H   0  0  0  0  0  0  0  0  0  0  0  0
   -2.5158    1.4641    3.8206 H   0  0  0  0  0  0  0  0  0  0  0  0
    2.1585   -0.1391    6.0122 Si  0  0  0  0  0  4  0  0  0  0  0  0
    3.5188   -0.1212    6.5476 H   0  0  0  0  0  0  0  0  0  0  0  0
    1.3695    0.8149    6.8347 H   0  0  0  0  0  0  0  0  0  0  0  0
   -0.4467    2.9768    5.4722 Si  0  0  0  0  0  4  0  0  0  0  0  0
   -0.7666    4.4212    5.2846 H   0  0  0  0  0  0  0  0  0  0  0  0
    0.9836    2.8873    5.6873 H   0  0  0  0  0  0  0  0  0  0  0  0
   -1.6519    2.2494    7.1841 Si  0  0  0  0  0  4  0  0  0  0  0  0
   -3.0540    2.7080    6.9654 H   0  0  0  0  0  0  0  0  0  0  0  0
   -1.6914    0.7866    7.1381 H   0  0  0  0  0  0  0  0  0  0  0  0
    1.2924   -2.1626    6.3755 Si  0  0  0  0  0  4  0  0  0  0  0  0
    1.2989   -2.3716    7.8505 H   0  0  0  0  0  0  0  0  0  0  0  0
    2.1512   -3.1549    5.7581 H   0  0  0  0  0  0  0  0  0  0  0  0
   -0.8211   -2.2875    5.7044 Si  0  0  0  0  0  4  0  0  0  0  0  0
   -0.8576   -3.2147    4.5386 H   0  0  0  0  0  0  0  0  0  0  0  0
   -1.3376   -0.9906    5.2583 H   0  0  0  0  0  0  0  0  0  0  0  0
   -0.8794    2.9370    9.1355 Si  0  0  0  0  0  4  0  0  0  0  0  0
   -1.8403    3.9412    9.6758 H   0  0  0  0  0  0  0  0  0  0  0  0
    0.4122    3.6261    9.0381 H   0  0  0  0  0  0  0  0  0  0  0  0
   -2.1477   -3.1373    7.2821 Si  0  0  0  0  0  4  0  0  0  0  0  0
   -1.3858   -3.4233    8.5076 H   0  0  0  0  0  0  0  0  0  0  0  0
   -2.7902   -4.3824    6.8518 H   0  0  0  0  0  0  0  0  0  0  0  0
   -0.7796    1.2850   10.6363 Si  0  0  0  0  0  4  0  0  0  0  0  0
   -1.8813    0.3434   10.4372 H   0  0  0  0  0  0  0  0  0  0  0  0
   -0.8952    1.8400   12.0149 H   0  0  0  0  0  0  0  0  0  0  0  0
    1.1420    0.1837   10.5285 Si  0  0  0  0  0  4  0  0  0  0  0  0
    1.8215    0.3447    9.2589 H   0  0  0  0  0  0  0  0  0  0  0  0
    0.9237   -1.2619   10.7400 H   0  0  0  0  0  0  0  0  0  0  0  0
    2.0860    0.6225   11.5898 H   0  0  0  0  0  0  0  0  0  0  0  0
   -3.7614   -1.6834    7.8484 Si  0  0  0  0  0  4  0  0  0  0  0  0
   -4.3054   -1.1132    6.6040 H   0  0  0  0  0  0  0  0  0  0  0  0
   -4.7877   -2.3842    8.6179 H   0  0  0  0  0  0  0  0  0  0  0  0
   -3.1936   -0.5988    8.6489 H   0  0  0  0  0  0  0  0  0  0  0  0
  1  2  1  0
  1  5  1  0
  2  3  1  0
  2  4  1  0
  2  8  1  0
  5  6  1  0
  5  7  1  0
  5 11  1  0
  8  9  1  0
  8 10  1  0
  8 17  1  0
 11 12  1  0
 11 13  1  0
 11 14  1  0
 14 15  1  0
 14 16  1  0
 14 23  1  0
 17 18  1  0
 17 19  1  0
 17 20  1  0
 20 21  1  0
 20 22  1  0
 20 26  1  0
 23 24  1  0
 23 25  1  0
 23 29  1  0
 26 27  1  0
 26 28  1  0
 26 36  1  0
 29 30  1  0
 29 31  1  0
 29 32  1  0
 32 33  1  0
 32 34  1  0
 32 35  1  0
 36 37  1  0
 36 38  1  0
 36 39  1  0
M  CHG  1   1   1
M  RAD  1   1   2
M  END
$$$$

     RDKit          3D

 39 38  0  0  0  0  0  0  0  0999 V2000
    0.0737    0.2266    3.1799 S   0  0  0  0  0  2  0  0  0  0  0  0
   -0.6056   -1.8037    3.5094 Si  0  0  0  0  0  4  0  0  0  0  0  0
   -2.0669   -1.8181    3.4888 H   0  0  0  0  0  0  0  0  0  0  0  0
    0.0029   -2.7293    2.5724 H   0  0  0  0  0  0  0  0  0  0  0  0
   -1.3561    1.5900    3.9742 Si  0  0  0  0  0  4  0  0  0  0  0  0
   -2.5801    0.8747    4.3720 H   0  0  0  0  0  0  0  0  0  0  0  0
   -1.7629    2.5001    2.8655 H   0  0  0  0  0  0  0  0  0  0  0  0
    0.0235   -2.3465    5.6025 Si  0  0  0  0  0  4  0  0  0  0  0  0
   -0.8015   -3.4014    6.1555 H   0  0  0  0  0  0  0  0  0  0  0  0
   -0.1658   -1.1095    6.4093 H   0  0  0  0  0  0  0  0  0  0  0  0
   -0.5705    2.7296    5.7111 Si  0  0  0  0  0  4  0  0  0  0  0  0
   -1.5926    2.7873    6.7832 H   0  0  0  0  0  0  0  0  0  0  0  0
   -0.3894    4.1409    5.2673 H   0  0  0  0  0  0  0  0  0  0  0  0
    1.3438    1.9312    6.4619 Si  0  0  0  0  0  4  0  0  0  0  0  0
    2.4438    2.7056    5.8485 H   0  0  0  0  0  0  0  0  0  0  0  0
    1.5619    0.5294    6.1067 H   0  0  0  0  0  0  0  0  0  0  0  0
    2.1809   -2.8785    5.6591 Si  0  0  0  0  0  4  0  0  0  0  0  0
    2.6771   -2.7989    7.0403 H   0  0  0  0  0  0  0  0  0  0  0  0
    2.3334   -4.2861    5.2362 H   0  0  0  0  0  0  0  0  0  0  0  0
    3.3987   -1.5956    4.3287 Si  0  0  0  0  0  4  0  0  0  0  0  0
    3.4646   -2.1876    2.9689 H   0  0  0  0  0  0  0  0  0  0  0  0
    2.8511   -0.2359    4.1967 H   0  0  0  0  0  0  0  0  0  0  0  0
    1.5485    2.1281    8.6693 Si  0  0  0  0  0  4  0  0  0  0  0  0
    2.8199    1.5450    9.0674 H   0  0  0  0  0  0  0  0  0  0  0  0
    1.5141    3.5586    9.0169 H   0  0  0  0  0  0  0  0  0  0  0  0
    5.4734   -1.3770    5.1616 Si  0  0  0  0  0  4  0  0  0  0  0  0
    5.7314   -2.3760    6.2091 H   0  0  0  0  0  0  0  0  0  0  0  0
    6.4621   -1.5568    4.0774 H   0  0  0  0  0  0  0  0  0  0  0  0
   -0.0841    1.1016    9.7574 Si  0  0  0  0  0  4  0  0  0  0  0  0
   -1.4202    1.5397    9.2782 H   0  0  0  0  0  0  0  0  0  0  0  0
   -0.0132    1.5189   11.1769 H   0  0  0  0  0  0  0  0  0  0  0  0
    0.1118   -1.1100    9.6978 Si  0  0  0  0  0  4  0  0  0  0  0  0
    1.3977   -1.5392    9.1191 H   0  0  0  0  0  0  0  0  0  0  0  0
   -0.9433   -1.6336    8.7847 H   0  0  0  0  0  0  0  0  0  0  0  0
   -0.1408   -1.7330   11.0042 H   0  0  0  0  0  0  0  0  0  0  0  0
    5.7818    0.6775    5.9903 Si  0  0  0  0  0  4  0  0  0  0  0  0
    6.9749    0.6475    6.8621 H   0  0  0  0  0  0  0  0  0  0  0  0
    5.9970    1.6593    4.9218 H   0  0  0  0  0  0  0  0  0  0  0  0
    4.6579    1.1087    6.8194 H   0  0  0  0  0  0  0  0  0  0  0  0
  1  2  1  0
  1  5  1  0
  2  3  1  0
  2  4  1  0
  2  8  1  0
  5  6  1  0
  5  7  1  0
  5 11  1  0
  8  9  1  0
  8 10  1  0
  8 17  1  0
 11 12  1  0
 11 13  1  0
 11 14  1  0
 14 15  1  0
 14 16  1  0
 14 23  1  0
 17 18  1  0
 17 19  1  0
 17 20  1  0
 20 21  1  0
 20 22  1  0
 20 26  1  0
 23 24  1  0
 23 25  1  0
 23 29  1  0
 26 27  1  0
 26 28  1  0
 26 36  1  0
 29 30  1  0
 29 31  1  0
 29 32  1  0
 32 33  1  0
 32 34  1  0
 32 35  1  0
 36 37  1  0
 36 38  1  0
 36 39  1  0
M  CHG  1   1   1
M  RAD  1   1   2
M  END
$$$$

     RDKit          3D

 39 38  0  0  0  0  0  0  0  0999 V2000
    0.0737    0.2266    3.1799 S   0  0  0  0  0  2  0  0  0  0  0  0
    0.9148    2.1935    3.4462 Si  0  0  0  0  0  4  0  0  0  0  0  0
   -0.1184    3.1594    3.0672 H   0  0  0  0  0  0  0  0  0  0  0  0
    2.1204    2.3517    2.6022 H   0  0  0  0  0  0  0  0  0  0  0  0
   -1.6777    0.0955    4.3963 Si  0  0  0  0  0  4  0  0  0  0  0  0
   -2.1692    1.4388    4.7597 H   0  0  0  0  0  0  0  0  0  0  0  0
   -2.7409   -0.5761    3.6240 H   0  0  0  0  0  0  0  0  0  0  0  0
    1.5012    2.3899    5.5879 Si  0  0  0  0  0  4  0  0  0  0  0  0
    2.9659    2.3844    5.7150 H   0  0  0  0  0  0  0  0  0  0  0  0
    0.8841    1.3255    6.4026 H   0  0  0  0  0  0  0  0  0  0  0  0
   -1.2322   -1.0690    6.2408 Si  0  0  0  0  0  4  0  0  0  0  0  0
    0.2166   -1.0133    6.4882 H   0  0  0  0  0  0  0  0  0  0  0  0
   -1.6510   -2.4719    6.0877 H   0  0  0  0  0  0  0  0  0  0  0  0
   -2.2928   -0.1527    7.9673 Si  0  0  0  0  0  4  0  0  0  0  0  0
   -3.4785   -0.9585    8.2885 H   0  0  0  0  0  0  0  0  0  0  0  0
   -2.7548    1.1981    7.6533 H   0  0  0  0  0  0  0  0  0  0  0  0
    0.7528    4.3398    6.4369 Si  0  0  0  0  0  4  0  0  0  0  0  0
   -0.6742    4.4129    6.1175 H   0  0  0  0  0  0  0  0  0  0  0  0
    1.5298    5.4042    5.7753 H   0  0  0  0  0  0  0  0  0  0  0  0
    1.1285    4.2774    8.6320 Si  0  0  0  0  0  4  0  0  0  0  0  0
    2.3543    3.4859    8.8777 H   0  0  0  0  0  0  0  0  0  0  0  0
    0.0021    3.5669    9.2693 H   0  0  0  0  0  0  0  0  0  0  0  0
   -0.9221   -0.1088    9.7255 Si  0  0  0  0  0  4  0  0  0  0  0  0
   -0.9334   -1.4435   10.3659 H   0  0  0  0  0  0  0  0  0  0  0  0
    0.4366    0.1749    9.2648 H   0  0  0  0  0  0  0  0  0  0  0  0
    1.3931    6.3120    9.4811 Si  0  0  0  0  0  4  0  0  0  0  0  0
    1.7061    7.2439    8.3951 H   0  0  0  0  0  0  0  0  0  0  0  0
    0.1640    6.6687   10.1990 H   0  0  0  0  0  0  0  0  0  0  0  0
   -1.5778    1.4133   11.2166 Si  0  0  0  0  0  4  0  0  0  0  0  0
   -2.0842    0.7878   12.4410 H   0  0  0  0  0  0  0  0  0  0  0  0
   -0.4146    2.2506   11.5688 H   0  0  0  0  0  0  0  0  0  0  0  0
   -3.1447    2.7294   10.3234 Si  0  0  0  0  0  4  0  0  0  0  0  0
   -4.3730    1.9280   10.1281 H   0  0  0  0  0  0  0  0  0  0  0  0
   -3.4107    3.8831   11.1782 H   0  0  0  0  0  0  0  0  0  0  0  0
   -2.6580    3.1879    9.0130 H   0  0  0  0  0  0  0  0  0  0  0  0
    3.0536    6.2478   10.9880 Si  0  0  0  0  0  4  0  0  0  0  0  0
    4.3170    6.1734   10.2275 H   0  0  0  0  0  0  0  0  0  0  0  0
    2.9470    4.9722   11.7304 H   0  0  0  0  0  0  0  0  0  0  0  0
    3.0108    7.4086   11.8771 H   0  0  0  0  0  0  0  0  0  0  0  0
  1  2  1  0
  1  5  1  0
  2  3  1  0
  2  4  1  0
  2  8  1  0
  5  6  1  0
  5  7  1  0
  5 11  1  0
  8  9  1  0
  8 10  1  0
  8 17  1  0
 11 12  1  0
 11 13  1  0
 11 14  1  0
 14 15  1  0
 14 16  1  0
 14 23  1  0
 17 18  1  0
 17 19  1  0
 17 20  1  0
 20 21  1  0
 20 22  1  0
 20 26  1  0
 23 24  1  0
 23 25  1  0
 23 29  1  0
 26 27  1  0
 26 28  1  0
 26 36  1  0
 29 30  1  0
 29 31  1  0
 29 32  1  0
 32 33  1  0
 32 34  1  0
 32 35  1  0
 36 37  1  0
 36 38  1  0
 36 39  1  0
M  CHG  1   1   1
M  RAD  1   1   2
M  END
$$$$

     RDKit          3D

 39 38  0  0  0  0  0  0  0  0999 V2000
    0.0737    0.2266    3.1799 S   0  0  0  0  0  2  0  0  0  0  0  0
   -1.6551    0.0011    4.3901 Si  0  0  0  0  0  4  0  0  0  0  0  0
   -2.7600    0.8898    3.9710 H   0  0  0  0  0  0  0  0  0  0  0  0
   -2.1578   -1.3893    4.2042 H   0  0  0  0  0  0  0  0  0  0  0  0
    1.8600    0.4628    4.3158 Si  0  0  0  0  0  4  0  0  0  0  0  0
    2.8418    1.1684    3.4420 H   0  0  0  0  0  0  0  0  0  0  0  0
    1.6831    1.3072    5.4950 H   0  0  0  0  0  0  0  0  0  0  0  0
   -1.1835    0.2663    6.5307 Si  0  0  0  0  0  4  0  0  0  0  0  0
    0.0689    1.0133    6.7069 H   0  0  0  0  0  0  0  0  0  0  0  0
   -1.0352   -1.0062    7.2369 H   0  0  0  0  0  0  0  0  0  0  0  0
    2.7822   -1.5051    4.8391 Si  0  0  0  0  0  4  0  0  0  0  0  0
    4.2462   -1.3008    4.9491 H   0  0  0  0  0  0  0  0  0  0  0  0
    2.5245   -2.4162    3.7040 H   0  0  0  0  0  0  0  0  0  0  0  0
    2.0070   -2.3068    6.7480 Si  0  0  0  0  0  4  0  0  0  0  0  0
    3.1122   -3.0224    7.4406 H   0  0  0  0  0  0  0  0  0  0  0  0
    1.5240   -1.2578    7.6423 H   0  0  0  0  0  0  0  0  0  0  0  0
   -2.7814    1.4543    7.5887 Si  0  0  0  0  0  4  0  0  0  0  0  0
   -3.9164    0.5797    7.9048 H   0  0  0  0  0  0  0  0  0  0  0  0
   -3.2451    2.5549    6.7641 H   0  0  0  0  0  0  0  0  0  0  0  0
   -1.8225    2.1960    9.4918 Si  0  0  0  0  0  4  0  0  0  0  0  0
   -0.5129    2.7627    9.0966 H   0  0  0  0  0  0  0  0  0  0  0  0
   -2.6176    3.2259   10.1242 H   0  0  0  0  0  0  0  0  0  0  0  0
    0.4105   -3.8461    6.3794 Si  0  0  0  0  0  4  0  0  0  0  0  0
    1.0251   -5.1000    5.9535 H   0  0  0  0  0  0  0  0  0  0  0  0
   -0.4606   -3.3247    5.3039 H   0  0  0  0  0  0  0  0  0  0  0  0
   -1.4609    0.4302   10.7872 Si  0  0  0  0  0  4  0  0  0  0  0  0
   -2.1880   -0.7641   10.3252 H   0  0  0  0  0  0  0  0  0  0  0  0
   -1.9119    0.7024   12.1600 H   0  0  0  0  0  0  0  0  0  0  0  0
   -0.7334   -4.1242    8.2816 Si  0  0  0  0  0  4  0  0  0  0  0  0
    0.2441   -4.1190    9.3797 H   0  0  0  0  0  0  0  0  0  0  0  0
   -1.6329   -2.9755    8.4715 H   0  0  0  0  0  0  0  0  0  0  0  0
   -1.9400   -5.9947    8.2401 Si  0  0  0  0  0  4  0  0  0  0  0  0
   -1.5798   -6.7767    9.4445 H   0  0  0  0  0  0  0  0  0  0  0  0
   -3.3798   -5.6955    8.3625 H   0  0  0  0  0  0  0  0  0  0  0  0
   -1.7054   -6.7671    7.0202 H   0  0  0  0  0  0  0  0  0  0  0  0
    0.7080   -0.0862   10.8530 Si  0  0  0  0  0  4  0  0  0  0  0  0
    1.4532    1.0559   10.2808 H   0  0  0  0  0  0  0  0  0  0  0  0
    1.1767   -0.2777   12.2390 H   0  0  0  0  0  0  0  0  0  0  0  0
    0.9979   -1.2827   10.0655 H   0  0  0  0  0  0  0  0  0  0  0  0
  1  2  1  0
  1  5  1  0
  2  3  1  0
  2  4  1  0
  2  8  1  0
  5  6  1  0
  5  7  1  0
  5 11  1  0
  8  9  1  0
  8 10  1  0
  8 17  1  0
 11 12  1  0
 11 13  1  0
 11 14  1  0
 14 15  1  0
 14 16  1  0
 14 23  1  0
 17 18  1  0
 17 19  1  0
 17 20  1  0
 20 21  1  0
 20 22  1  0
 20 26  1  0
 23 24  1  0
 23 25  1  0
 23 29  1  0
 26 27  1  0
 26 28  1  0
 26 36  1  0
 29 30  1  0
 29 31  1  0
 29 32  1  0
 32 33  1  0
 32 34  1  0
 32 35  1  0
 36 37  1  0
 36 38  1  0
 36 39  1  0
M  CHG  1   1   1
M  RAD  1   1   2
M  END
$$$$

     RDKit          3D

 39 38  0  0  0  0  0  0  0  0999 V2000
    0.0737    0.2266    3.1799 S   0  0  0  0  0  2  0  0  0  0  0  0
    0.9881   -1.7102    3.4249 Si  0  0  0  0  0  4  0  0  0  0  0  0
    2.3820   -1.5868    2.9936 H   0  0  0  0  0  0  0  0  0  0  0  0
    0.2717   -2.7194    2.6130 H   0  0  0  0  0  0  0  0  0  0  0  0
    1.1876    1.6267    4.3473 Si  0  0  0  0  0  4  0  0  0  0  0  0
    2.5290    1.0994    4.6650 H   0  0  0  0  0  0  0  0  0  0  0  0
    1.3673    2.8619    3.5602 H   0  0  0  0  0  0  0  0  0  0  0  0
    0.8224   -2.2646    5.5777 Si  0  0  0  0  0  4  0  0  0  0  0  0
   -0.1528   -3.3516    5.7476 H   0  0  0  0  0  0  0  0  0  0  0  0
    0.4707   -1.0899    6.3986 H   0  0  0  0  0  0  0  0  0  0  0  0
    0.0912    2.0829    6.2306 Si  0  0  0  0  0  4  0  0  0  0  0  0
   -0.8234    0.9676    6.5188 H   0  0  0  0  0  0  0  0  0  0  0  0
   -0.6803    3.3295    6.0979 H   0  0  0  0  0  0  0  0  0  0  0  0
    1.5437    2.2730    7.9037 Si  0  0  0  0  0  4  0  0  0  0  0  0
    1.7453    3.6959    8.2088 H   0  0  0  0  0  0  0  0  0  0  0  0
    2.8461    1.7145    7.5451 H   0  0  0  0  0  0  0  0  0  0  0  0
    2.8046   -3.0020    6.3591 Si  0  0  0  0  0  4  0  0  0  0  0  0
    3.7980   -1.9894    5.9965 H   0  0  0  0  0  0  0  0  0  0  0  0
    3.0555   -4.2949    5.6959 H   0  0  0  0  0  0  0  0  0  0  0  0
    2.5885   -3.2264    8.5650 Si  0  0  0  0  0  4  0  0  0  0  0  0
    1.1913   -3.6105    8.8647 H   0  0  0  0  0  0  0  0  0  0  0  0
    2.8332   -1.9094    9.1855 H   0  0  0  0  0  0  0  0  0  0  0  0
    0.7279    1.2334    9.6996 Si  0  0  0  0  0  4  0  0  0  0  0  0
   -0.2352    2.1359   10.3703 H   0  0  0  0  0  0  0  0  0  0  0  0
    0.0170    0.0289    9.2724 H   0  0  0  0  0  0  0  0  0  0  0  0
    3.9588   -4.7751    9.3741 Si  0  0  0  0  0  4  0  0  0  0  0  0
    4.4045   -5.6365    8.2764 H   0  0  0  0  0  0  0  0  0  0  0  0
    5.0697   -4.0926   10.0473 H   0  0  0  0  0  0  0  0  0  0  0  0
    2.3532    0.7163   11.1353 Si  0  0  0  0  0  4  0  0  0  0  0  0
    2.2698    1.5185   12.3586 H   0  0  0  0  0  0  0  0  0  0  0  0
    2.2149   -0.7066   11.5018 H   0  0  0  0  0  0  0  0  0  0  0  0
    4.3446    1.0007   10.1665 Si  0  0  0  0  0  4  0  0  0  0  0  0
    4.5588    2.4492    9.9540 H   0  0  0  0  0  0  0  0  0  0  0  0
    5.4126    0.4349   10.9861 H   0  0  0  0  0  0  0  0  0  0  0  0
    4.3137    0.3240    8.8605 H   0  0  0  0  0  0  0  0  0  0  0  0
    2.8601   -5.9601   10.9299 Si  0  0  0  0  0  4  0  0  0  0  0  0
    1.9350   -6.8567   10.2086 H   0  0  0  0  0  0  0  0  0  0  0  0
    2.0083   -5.0254   11.6983 H   0  0  0  0  0  0  0  0  0  0  0  0
    3.7858   -6.6967   11.7902 H   0  0  0  0  0  0  0  0  0  0  0  0
  1  2  1  0
  1  5  1  0
  2  3  1  0
  2  4  1  0
  2  8  1  0
  5  6  1  0
  5  7  1  0
  5 11  1  0
  8  9  1  0
  8 10  1  0
  8 17  1  0
 11 12  1  0
 11 13  1  0
 11 14  1  0
 14 15  1  0
 14 16  1  0
 14 23  1  0
 17 18  1  0
 17 19  1  0
 17 20  1  0
 20 21  1  0
 20 22  1  0
 20 26  1  0
 23 24  1  0
 23 25  1  0
 23 29  1  0
 26 27  1  0
 26 28  1  0
 26 36  1  0
 29 30  1  0
 29 31  1  0
 29 32  1  0
 32 33  1  0
 32 34  1  0
 32 35  1  0
 36 37  1  0
 36 38  1  0
 36 39  1  0
M  CHG  1   1   1
M  RAD  1   1   2
M  END
$$$$

     RDKit          3D

 39 38  0  0  0  0  0  0  0  0999 V2000
    0.0737    0.2266    3.1799 S   0  0  0  0  0  2  0  0  0  0  0  0
    1.5248    1.2597    4.3336 Si  0  0  0  0  0  4  0  0  0  0  0  0
    2.9039    1.0159    3.8595 H   0  0  0  0  0  0  0  0  0  0  0  0
    1.2855    2.7199    4.1569 H   0  0  0  0  0  0  0  0  0  0  0  0
   -1.3298   -0.8438    4.3723 Si  0  0  0  0  0  4  0  0  0  0  0  0
   -1.8823   -1.9361    3.5197 H   0  0  0  0  0  0  0  0  0  0  0  0
   -0.7206   -1.4973    5.5283 H   0  0  0  0  0  0  0  0  0  0  0  0
    1.3251    0.7997    6.4837 Si  0  0  0  0  0  4  0  0  0  0  0  0
    0.5974   -0.4597    6.6890 H   0  0  0  0  0  0  0  0  0  0  0  0
    0.6085    1.8419    7.2188 H   0  0  0  0  0  0  0  0  0  0  0  0
   -3.0663    0.4331    4.9647 Si  0  0  0  0  0  4  0  0  0  0  0  0
   -4.2439   -0.4535    5.1214 H   0  0  0  0  0  0  0  0  0  0  0  0
   -3.3259    1.3552    3.8389 H   0  0  0  0  0  0  0  0  0  0  0  0
   -2.7000    1.5097    6.8605 Si  0  0  0  0  0  4  0  0  0  0  0  0
   -3.9850    1.6019    7.6045 H   0  0  0  0  0  0  0  0  0  0  0  0
   -1.7355    0.8250    7.7173 H   0  0  0  0  0  0  0  0  0  0  0  0
    3.3384    0.5323    7.4629 Si  0  0  0  0  0  4  0  0  0  0  0  0
    3.9212    1.8466    7.7561 H   0  0  0  0  0  0  0  0  0  0  0  0
    4.2430   -0.2070    6.6019 H   0  0  0  0  0  0  0  0  0  0  0  0
    2.9332   -0.5805    9.3836 Si  0  0  0  0  0  4  0  0  0  0  0  0
    2.0459   -1.7096    9.0233 H   0  0  0  0  0  0  0  0  0  0  0  0
    4.1512   -1.0976    9.9683 H   0  0  0  0  0  0  0  0  0  0  0  0
   -2.0617    3.6290    6.4663 Si  0  0  0  0  0  4  0  0  0  0  0  0
   -3.2218    4.4296    6.0859 H   0  0  0  0  0  0  0  0  0  0  0  0
   -1.0905    3.5936    5.3515 H   0  0  0  0  0  0  0  0  0  0  0  0
    1.8152    0.7905   10.7242 Si  0  0  0  0  0  4  0  0  0  0  0  0
    1.8560    2.1875   10.2602 H   0  0  0  0  0  0  0  0  0  0  0  0
    2.3954    0.7703   12.0751 H   0  0  0  0  0  0  0  0  0  0  0  0
   -1.1203    4.4255    8.3326 Si  0  0  0  0  0  4  0  0  0  0  0  0
   -1.9293    3.9485    9.4636 H   0  0  0  0  0  0  0  0  0  0  0  0
    0.2289    3.8549    8.4693 H   0  0  0  0  0  0  0  0  0  0  0  0
   -0.9701    6.6463    8.2851 Si  0  0  0  0  0  4  0  0  0  0  0  0
   -1.6152    7.1568    9.5159 H   0  0  0  0  0  0  0  0  0  0  0  0
    0.4386    7.0804    8.3517 H   0  0  0  0  0  0  0  0  0  0  0  0
   -1.5966    7.2089    7.0890 H   0  0  0  0  0  0  0  0  0  0  0  0
   -0.3288    0.1941   10.8749 Si  0  0  0  0  0  4  0  0  0  0  0  0
   -0.4516   -1.1659   10.3073 H   0  0  0  0  0  0  0  0  0  0  0  0
   -0.7764    0.1352   12.2797 H   0  0  0  0  0  0  0  0  0  0  0  0
   -1.1915    1.1013   10.1209 H   0  0  0  0  0  0  0  0  0  0  0  0
  1  2  1  0
  1  5  1  0
  2  3  1  0
  2  4  1  0
  2  8  1  0
  5  6  1  0
  5  7  1  0
  5 11  1  0
  8  9  1  0
  8 10  1  0
  8 17  1  0
 11 12  1  0
 11 13  1  0
 11 14  1  0
 14 15  1  0
 14 16  1  0
 14 23  1  0
 17 18  1  0
 17 19  1  0
 17 20  1  0
 20 21  1  0
 20 22  1  0
 20 26  1  0
 23 24  1  0
 23 25  1  0
 23 29  1  0
 26 27  1  0
 26 28  1  0
 26 36  1  0
 29 30  1  0
 29 31  1  0
 29 32  1  0
 32 33  1  0
 32 34  1  0
 32 35  1  0
 36 37  1  0
 36 38  1  0
 36 39  1  0
M  CHG  1   1   1
M  RAD  1   1   2
M  END
$$$$
