
     RDKit          3D

 39 38  0  0  0  0  0  0  0  0999 V2000
    0.1734    0.0925    3.2288 S   0  0  0  0  0  2  0  0  0  0  0  0
   -0.1781   -1.7863    4.1281 Si  0  0  0  0  0  4  0  0  0  0  0  0
    0.3614   -2.8410    3.2215 H   0  0  0  0  0  0  0  0  0  0  0  0
   -1.6167   -2.0685    4.2551 H   0  0  0  0  0  0  0  0  0  0  0  0
   -1.0563    1.6483    3.9498 Si  0  0  0  0  0  4  0  0  0  0  0  0
   -0.2002    2.8516    4.1610 H   0  0  0  0  0  0  0  0  0  0  0  0
   -2.0911    2.0742    2.9782 H   0  0  0  0  0  0  0  0  0  0  0  0
    0.8888   -2.0147    6.0752 Si  0  0  0  0  0  4  0  0  0  0  0  0
    1.9264   -3.0396    6.0238 H   0  0  0  0  0  0  0  0  0  0  0  0
    1.5778   -0.7251    6.3403 H   0  0  0  0  0  0  0  0  0  0  0  0
   -2.0112    1.1803    5.9017 Si  0  0  0  0  0  4  0  0  0  0  0  0
   -0.9783    0.6260    6.7875 H   0  0  0  0  0  0  0  0  0  0  0  0
   -2.4159    2.4795    6.5119 H   0  0  0  0  0  0  0  0  0  0  0  0
   -3.7756   -0.1314    5.6950 Si  0  0  0  0  0  4  0  0  0  0  0  0
   -3.9512   -0.4861    4.2731 H   0  0  0  0  0  0  0  0  0  0  0  0
   -3.6713   -1.3778    6.4432 H   0  0  0  0  0  0  0  0  0  0  0  0
   -0.5113   -2.5051    7.7196 Si  0  0  0  0  0  4  0  0  0  0  0  0
   -1.8390   -2.7702    7.1238 H   0  0  0  0  0  0  0  0  0  0  0  0
   -0.6403   -1.3470    8.6058 H   0  0  0  0  0  0  0  0  0  0  0  0
    0.0941   -4.3447    8.8223 Si  0  0  0  0  0  4  0  0  0  0  0  0
    1.5280   -4.4516    9.0004 H   0  0  0  0  0  0  0  0  0  0  0  0
   -0.5573   -4.2806   10.1587 H   0  0  0  0  0  0  0  0  0  0  0  0
   -5.6599    0.8897    6.3587 Si  0  0  0  0  0  4  0  0  0  0  0  0
   -5.8380    0.6730    7.8076 H   0  0  0  0  0  0  0  0  0  0  0  0
   -5.6259    2.3093    6.0577 H   0  0  0  0  0  0  0  0  0  0  0  0
   -0.7416   -6.1064    7.6957 Si  0  0  0  0  0  4  0  0  0  0  0  0
    0.1889   -6.4449    6.6190 H   0  0  0  0  0  0  0  0  0  0  0  0
   -2.0340   -5.6664    7.1389 H   0  0  0  0  0  0  0  0  0  0  0  0
   -7.3825   -0.1224    5.3376 Si  0  0  0  0  0  4  0  0  0  0  0  0
   -6.9387   -0.5810    4.0125 H   0  0  0  0  0  0  0  0  0  0  0  0
   -8.4902    0.8252    5.1535 H   0  0  0  0  0  0  0  0  0  0  0  0
   -8.1491   -1.8257    6.5533 Si  0  0  0  0  0  4  0  0  0  0  0  0
   -9.6197   -1.9667    6.4022 H   0  0  0  0  0  0  0  0  0  0  0  0
   -7.5080   -3.0967    6.1672 H   0  0  0  0  0  0  0  0  0  0  0  0
   -7.8871   -1.5921    7.9697 H   0  0  0  0  0  0  0  0  0  0  0  0
   -1.0629   -7.7768    9.1191 Si  0  0  0  0  0  4  0  0  0  0  0  0
   -2.3072   -8.4761    8.7139 H   0  0  0  0  0  0  0  0  0  0  0  0
    0.0888   -8.6886    9.0171 H   0  0  0  0  0  0  0  0  0  0  0  0
   -1.2211   -7.2738   10.4882 H   0  0  0  0  0  0  0  0  0  0  0  0
  1  2  1  0
  1  5  1  0
  2  3  1  0
  2  4  1  0
  2  8  1  0
  5  6  1  0
  5  7  1  0
  5 11  1  0
  8  9  1  0
  8 10  1  0
  8 17  1  0
 11 12  1  0
 11 13  1  0
 11 14  1  0
 14 15  1  0
 14 16  1  0
 14 23  1  0
 17 18  1  0
 17 19  1  0
 17 20  1  0
 20 21  1  0
 20 22  1  0
 20 26  1  0
 23 24  1  0
 23 25  1  0
 23 29  1  0
 26 27  1  0
 26 28  1  0
 26 36  1  0
 29 30  1  0
 29 31  1  0
 29 32  1  0
 32 33  1  0
 32 34  1  0
 32 35  1  0
 36 37  1  0
 36 38  1  0
 36 39  1  0
M  CHG  1   1   1
M  RAD  1   1   2
M  END
$$$$
