
     RDKit          3D

 39 38  0  0  0  0  0  0  0  0999 V2000
    0.1396    0.1310    3.2192 S   0  0  0  0  0  2  0  0  0  0  0  0
   -1.5435    1.3814    3.6943 Si  0  0  0  0  0  4  0  0  0  0  0  0
   -2.4239    1.3791    2.4977 H   0  0  0  0  0  0  0  0  0  0  0  0
   -1.1483    2.7713    3.9169 H   0  0  0  0  0  0  0  0  0  0  0  0
    1.7942    0.5136    4.5178 Si  0  0  0  0  0  4  0  0  0  0  0  0
    1.6753    1.7861    5.2240 H   0  0  0  0  0  0  0  0  0  0  0  0
    3.0426    0.5329    3.7207 H   0  0  0  0  0  0  0  0  0  0  0  0
   -2.6492    0.5475    5.4161 Si  0  0  0  0  0  4  0  0  0  0  0  0
   -3.9642    0.0013    4.9737 H   0  0  0  0  0  0  0  0  0  0  0  0
   -1.9264   -0.6020    6.0039 H   0  0  0  0  0  0  0  0  0  0  0  0
    1.9413   -1.1705    5.9715 Si  0  0  0  0  0  4  0  0  0  0  0  0
    2.8462   -2.2060    5.4539 H   0  0  0  0  0  0  0  0  0  0  0  0
    0.6068   -1.7328    6.1688 H   0  0  0  0  0  0  0  0  0  0  0  0
    2.7458   -0.4255    7.9201 Si  0  0  0  0  0  4  0  0  0  0  0  0
    4.1180    0.0316    7.7710 H   0  0  0  0  0  0  0  0  0  0  0  0
    2.6462   -1.5168    8.9014 H   0  0  0  0  0  0  0  0  0  0  0  0
   -3.0856    2.0851    6.9707 Si  0  0  0  0  0  4  0  0  0  0  0  0
   -3.1005    3.4405    6.4176 H   0  0  0  0  0  0  0  0  0  0  0  0
   -2.0593    2.0628    8.0288 H   0  0  0  0  0  0  0  0  0  0  0  0
   -5.0419    1.6089    7.9660 Si  0  0  0  0  0  4  0  0  0  0  0  0
   -5.8513    2.8042    8.1426 H   0  0  0  0  0  0  0  0  0  0  0  0
   -4.8065    0.9605    9.2858 H   0  0  0  0  0  0  0  0  0  0  0  0
    1.4360    1.2493    8.6498 Si  0  0  0  0  0  4  0  0  0  0  0  0
    0.1145    1.0446    8.0566 H   0  0  0  0  0  0  0  0  0  0  0  0
    1.3595    1.1932   10.1273 H   0  0  0  0  0  0  0  0  0  0  0  0
   -6.1079    0.0685    6.7141 Si  0  0  0  0  0  4  0  0  0  0  0  0
   -6.0447    0.4872    5.2893 H   0  0  0  0  0  0  0  0  0  0  0  0
   -7.4889   -0.0759    7.1573 H   0  0  0  0  0  0  0  0  0  0  0  0
    2.2520    3.2231    8.0222 Si  0  0  0  0  0  4  0  0  0  0  0  0
    2.6887    4.0048    9.1782 H   0  0  0  0  0  0  0  0  0  0  0  0
    3.4137    3.0355    7.1267 H   0  0  0  0  0  0  0  0  0  0  0  0
    0.6883    4.4333    6.9604 Si  0  0  0  0  0  4  0  0  0  0  0  0
    1.3274    5.4446    6.0950 H   0  0  0  0  0  0  0  0  0  0  0  0
   -0.2106    5.0651    7.9408 H   0  0  0  0  0  0  0  0  0  0  0  0
   -0.1316    3.5161    6.1404 H   0  0  0  0  0  0  0  0  0  0  0  0
   -5.0290   -1.8707    6.9915 Si  0  0  0  0  0  4  0  0  0  0  0  0
   -3.8321   -1.7195    7.8173 H   0  0  0  0  0  0  0  0  0  0  0  0
   -5.8991   -2.8527    7.6689 H   0  0  0  0  0  0  0  0  0  0  0  0
   -4.5826   -2.3917    5.6811 H   0  0  0  0  0  0  0  0  0  0  0  0
  1  2  1  0
  1  5  1  0
  2  3  1  0
  2  4  1  0
  2  8  1  0
  5  6  1  0
  5  7  1  0
  5 11  1  0
  8  9  1  0
  8 10  1  0
  8 17  1  0
 11 12  1  0
 11 13  1  0
 11 14  1  0
 14 15  1  0
 14 16  1  0
 14 23  1  0
 17 18  1  0
 17 19  1  0
 17 20  1  0
 20 21  1  0
 20 22  1  0
 20 26  1  0
 23 24  1  0
 23 25  1  0
 23 29  1  0
 26 27  1  0
 26 28  1  0
 26 36  1  0
 29 30  1  0
 29 31  1  0
 29 32  1  0
 32 33  1  0
 32 34  1  0
 32 35  1  0
 36 37  1  0
 36 38  1  0
 36 39  1  0
M  CHG  1   1   1
M  RAD  1   1   2
M  END
$$$$

     RDKit          3D

 39 38  0  0  0  0  0  0  0  0999 V2000
    0.1396    0.1310    3.2192 S   0  0  0  0  0  2  0  0  0  0  0  0
   -0.5025    2.1546    3.6560 Si  0  0  0  0  0  4  0  0  0  0  0  0
   -0.9278    2.7748    2.4075 H   0  0  0  0  0  0  0  0  0  0  0  0
    0.5974    2.9005    4.2938 H   0  0  0  0  0  0  0  0  0  0  0  0
   -1.4214   -1.2689    3.7435 Si  0  0  0  0  0  4  0  0  0  0  0  0
   -2.7423   -0.6224    3.6979 H   0  0  0  0  0  0  0  0  0  0  0  0
   -1.3387   -2.3667    2.7533 H   0  0  0  0  0  0  0  0  0  0  0  0
   -2.1909    1.9863    5.1191 Si  0  0  0  0  0  4  0  0  0  0  0  0
   -3.3448    1.4333    4.3963 H   0  0  0  0  0  0  0  0  0  0  0  0
   -1.7438    1.0638    6.1812 H   0  0  0  0  0  0  0  0  0  0  0  0
   -1.0723   -2.0871    5.8075 Si  0  0  0  0  0  4  0  0  0  0  0  0
   -2.2568   -1.9245    6.6527 H   0  0  0  0  0  0  0  0  0  0  0  0
   -0.8039   -3.5492    5.6957 H   0  0  0  0  0  0  0  0  0  0  0  0
    0.7374   -1.1325    6.6421 Si  0  0  0  0  0  4  0  0  0  0  0  0
    1.9480   -1.9020    6.3719 H   0  0  0  0  0  0  0  0  0  0  0  0
    0.9098    0.1913    5.9789 H   0  0  0  0  0  0  0  0  0  0  0  0
   -2.6862    3.9475    6.0271 Si  0  0  0  0  0  4  0  0  0  0  0  0
   -2.3416    5.0727    5.1582 H   0  0  0  0  0  0  0  0  0  0  0  0
   -1.9686    4.0877    7.3155 H   0  0  0  0  0  0  0  0  0  0  0  0
   -4.8757    3.9909    6.4614 Si  0  0  0  0  0  4  0  0  0  0  0  0
   -5.4404    5.3268    6.3494 H   0  0  0  0  0  0  0  0  0  0  0  0
   -5.5547    3.1344    5.4782 H   0  0  0  0  0  0  0  0  0  0  0  0
    0.5908   -0.7646    8.8229 Si  0  0  0  0  0  4  0  0  0  0  0  0
   -0.7469   -0.2845    9.1886 H   0  0  0  0  0  0  0  0  0  0  0  0
    0.8250   -2.0012    9.6046 H   0  0  0  0  0  0  0  0  0  0  0  0
   -5.2891    3.2086    8.5029 Si  0  0  0  0  0  4  0  0  0  0  0  0
   -6.7626    3.2126    8.6838 H   0  0  0  0  0  0  0  0  0  0  0  0
   -4.6290    4.0132    9.5275 H   0  0  0  0  0  0  0  0  0  0  0  0
    2.1096    0.7907    9.3704 Si  0  0  0  0  0  4  0  0  0  0  0  0
    3.1964    0.1691   10.1574 H   0  0  0  0  0  0  0  0  0  0  0  0
    2.7498    1.3563    8.1647 H   0  0  0  0  0  0  0  0  0  0  0  0
    1.1627    2.4841   10.4698 Si  0  0  0  0  0  4  0  0  0  0  0  0
   -0.2428    2.1504   10.6986 H   0  0  0  0  0  0  0  0  0  0  0  0
    1.8896    2.7088   11.7290 H   0  0  0  0  0  0  0  0  0  0  0  0
    1.1873    3.7319    9.6684 H   0  0  0  0  0  0  0  0  0  0  0  0
   -4.6308    1.0771    8.6988 Si  0  0  0  0  0  4  0  0  0  0  0  0
   -3.4898    0.8730    7.8177 H   0  0  0  0  0  0  0  0  0  0  0  0
   -5.6952    0.1547    8.2658 H   0  0  0  0  0  0  0  0  0  0  0  0
   -4.1855    0.7798   10.0759 H   0  0  0  0  0  0  0  0  0  0  0  0
  1  2  1  0
  1  5  1  0
  2  3  1  0
  2  4  1  0
  2  8  1  0
  5  6  1  0
  5  7  1  0
  5 11  1  0
  8  9  1  0
  8 10  1  0
  8 17  1  0
 11 12  1  0
 11 13  1  0
 11 14  1  0
 14 15  1  0
 14 16  1  0
 14 23  1  0
 17 18  1  0
 17 19  1  0
 17 20  1  0
 20 21  1  0
 20 22  1  0
 20 26  1  0
 23 24  1  0
 23 25  1  0
 23 29  1  0
 26 27  1  0
 26 28  1  0
 26 36  1  0
 29 30  1  0
 29 31  1  0
 29 32  1  0
 32 33  1  0
 32 34  1  0
 32 35  1  0
 36 37  1  0
 36 38  1  0
 36 39  1  0
M  CHG  1   1   1
M  RAD  1   1   2
M  END
$$$$

     RDKit          3D

 39 38  0  0  0  0  0  0  0  0999 V2000
    0.1396    0.1310    3.2192 S   0  0  0  0  0  2  0  0  0  0  0  0
    2.1690    0.7965    3.3171 Si  0  0  0  0  0  4  0  0  0  0  0  0
    2.2295    2.2395    2.9862 H   0  0  0  0  0  0  0  0  0  0  0  0
    2.9955    0.1146    2.2954 H   0  0  0  0  0  0  0  0  0  0  0  0
   -0.7294   -0.0879    5.1582 Si  0  0  0  0  0  4  0  0  0  0  0  0
    0.0685    0.5679    6.2062 H   0  0  0  0  0  0  0  0  0  0  0  0
   -2.0363    0.6171    5.1356 H   0  0  0  0  0  0  0  0  0  0  0  0
    2.9290    0.4053    5.3781 Si  0  0  0  0  0  4  0  0  0  0  0  0
    4.1301   -0.4478    5.2734 H   0  0  0  0  0  0  0  0  0  0  0  0
    1.9365   -0.2525    6.2149 H   0  0  0  0  0  0  0  0  0  0  0  0
   -1.1067   -2.2324    5.5981 Si  0  0  0  0  0  4  0  0  0  0  0  0
   -1.1486   -2.9551    4.3176 H   0  0  0  0  0  0  0  0  0  0  0  0
   -2.4169   -2.3685    6.2697 H   0  0  0  0  0  0  0  0  0  0  0  0
    0.4338   -3.0996    6.9422 Si  0  0  0  0  0  4  0  0  0  0  0  0
   -0.1832   -3.9860    7.9556 H   0  0  0  0  0  0  0  0  0  0  0  0
    1.1449   -2.0529    7.6772 H   0  0  0  0  0  0  0  0  0  0  0  0
    3.4760    2.3847    6.3014 Si  0  0  0  0  0  4  0  0  0  0  0  0
    2.3529    3.3004    6.1788 H   0  0  0  0  0  0  0  0  0  0  0  0
    3.8582    2.1573    7.7106 H   0  0  0  0  0  0  0  0  0  0  0  0
    5.2702    3.1282    5.1531 Si  0  0  0  0  0  4  0  0  0  0  0  0
    4.8413    3.7246    3.8895 H   0  0  0  0  0  0  0  0  0  0  0  0
    6.0071    4.0673    5.9948 H   0  0  0  0  0  0  0  0  0  0  0  0
    1.9511   -4.2844    5.8113 Si  0  0  0  0  0  4  0  0  0  0  0  0
    2.2146   -3.7260    4.4869 H   0  0  0  0  0  0  0  0  0  0  0  0
    1.4691   -5.6780    5.6596 H   0  0  0  0  0  0  0  0  0  0  0  0
    6.5442    1.3046    4.7781 Si  0  0  0  0  0  4  0  0  0  0  0  0
    7.8455    1.6707    4.2404 H   0  0  0  0  0  0  0  0  0  0  0  0
    5.7847    0.4474    3.8401 H   0  0  0  0  0  0  0  0  0  0  0  0
    3.8510   -4.4015    7.0025 Si  0  0  0  0  0  4  0  0  0  0  0  0
    3.7267   -5.4264    8.0585 H   0  0  0  0  0  0  0  0  0  0  0  0
    4.1428   -3.0963    7.6035 H   0  0  0  0  0  0  0  0  0  0  0  0
    5.5742   -4.9705    5.7171 Si  0  0  0  0  0  4  0  0  0  0  0  0
    5.6667   -6.4295    5.5274 H   0  0  0  0  0  0  0  0  0  0  0  0
    5.5190   -4.2858    4.4230 H   0  0  0  0  0  0  0  0  0  0  0  0
    6.8172   -4.5335    6.3805 H   0  0  0  0  0  0  0  0  0  0  0  0
    6.7337    0.2507    6.7559 Si  0  0  0  0  0  4  0  0  0  0  0  0
    5.4138    0.3719    7.4158 H   0  0  0  0  0  0  0  0  0  0  0  0
    7.6931    1.0100    7.5543 H   0  0  0  0  0  0  0  0  0  0  0  0
    7.0951   -1.1499    6.5850 H   0  0  0  0  0  0  0  0  0  0  0  0
  1  2  1  0
  1  5  1  0
  2  3  1  0
  2  4  1  0
  2  8  1  0
  5  6  1  0
  5  7  1  0
  5 11  1  0
  8  9  1  0
  8 10  1  0
  8 17  1  0
 11 12  1  0
 11 13  1  0
 11 14  1  0
 14 15  1  0
 14 16  1  0
 14 23  1  0
 17 18  1  0
 17 19  1  0
 17 20  1  0
 20 21  1  0
 20 22  1  0
 20 26  1  0
 23 24  1  0
 23 25  1  0
 23 29  1  0
 26 27  1  0
 26 28  1  0
 26 36  1  0
 29 30  1  0
 29 31  1  0
 29 32  1  0
 32 33  1  0
 32 34  1  0
 32 35  1  0
 36 37  1  0
 36 38  1  0
 36 39  1  0
M  CHG  1   1   1
M  RAD  1   1   2
M  END
$$$$

     RDKit          3D

 39 38  0  0  0  0  0  0  0  0999 V2000
    0.1396    0.1310    3.2192 S   0  0  0  0  0  2  0  0  0  0  0  0
    0.8874    1.8837    4.0354 Si  0  0  0  0  0  4  0  0  0  0  0  0
    1.8558    1.6235    5.1003 H   0  0  0  0  0  0  0  0  0  0  0  0
    1.6366    2.6181    2.9734 H   0  0  0  0  0  0  0  0  0  0  0  0
   -0.4817   -1.3857    4.4997 Si  0  0  0  0  0  4  0  0  0  0  0  0
   -0.4230   -2.6715    3.7419 H   0  0  0  0  0  0  0  0  0  0  0  0
   -1.9327   -1.2142    4.8001 H   0  0  0  0  0  0  0  0  0  0  0  0
   -0.6495    3.2893    4.8078 Si  0  0  0  0  0  4  0  0  0  0  0  0
   -1.0919    4.1772    3.6976 H   0  0  0  0  0  0  0  0  0  0  0  0
   -1.8060    2.6269    5.3672 H   0  0  0  0  0  0  0  0  0  0  0  0
    0.5939   -1.6299    6.3824 Si  0  0  0  0  0  4  0  0  0  0  0  0
    0.5456   -3.0680    6.7831 H   0  0  0  0  0  0  0  0  0  0  0  0
   -0.1586   -0.9309    7.4672 H   0  0  0  0  0  0  0  0  0  0  0  0
    2.6656   -0.9572    6.4324 Si  0  0  0  0  0  4  0  0  0  0  0  0
    3.4162   -1.7717    7.4301 H   0  0  0  0  0  0  0  0  0  0  0  0
    2.7182    0.4253    6.9924 H   0  0  0  0  0  0  0  0  0  0  0  0
    0.3736    4.6128    6.3146 Si  0  0  0  0  0  4  0  0  0  0  0  0
    1.3011    3.7240    7.0710 H   0  0  0  0  0  0  0  0  0  0  0  0
    1.1999    5.6088    5.6416 H   0  0  0  0  0  0  0  0  0  0  0  0
   -1.0735    5.4834    7.7382 Si  0  0  0  0  0  4  0  0  0  0  0  0
   -0.4970    5.4407    9.1110 H   0  0  0  0  0  0  0  0  0  0  0  0
   -1.3163    6.8909    7.4082 H   0  0  0  0  0  0  0  0  0  0  0  0
    3.7558   -1.1113    4.5237 Si  0  0  0  0  0  4  0  0  0  0  0  0
    3.0982   -0.4859    3.4020 H   0  0  0  0  0  0  0  0  0  0  0  0
    4.0233   -2.5162    4.2259 H   0  0  0  0  0  0  0  0  0  0  0  0
   -2.9599    4.3031    7.7879 Si  0  0  0  0  0  4  0  0  0  0  0  0
   -2.5753    2.8776    7.9856 H   0  0  0  0  0  0  0  0  0  0  0  0
   -3.7704    4.7877    8.9067 H   0  0  0  0  0  0  0  0  0  0  0  0
    5.7627   -0.1247    4.8274 Si  0  0  0  0  0  4  0  0  0  0  0  0
    6.7856   -0.7433    4.0049 H   0  0  0  0  0  0  0  0  0  0  0  0
    5.6928    1.3013    4.5484 H   0  0  0  0  0  0  0  0  0  0  0  0
    6.3609   -0.3620    6.9811 Si  0  0  0  0  0  4  0  0  0  0  0  0
    5.6962   -1.5180    7.5674 H   0  0  0  0  0  0  0  0  0  0  0  0
    6.0366    0.8364    7.7561 H   0  0  0  0  0  0  0  0  0  0  0  0
    7.8090   -0.5740    7.0821 H   0  0  0  0  0  0  0  0  0  0  0  0
   -4.0161    4.5592    5.8343 Si  0  0  0  0  0  4  0  0  0  0  0  0
   -5.3281    5.1705    6.0653 H   0  0  0  0  0  0  0  0  0  0  0  0
   -4.2294    3.2589    5.1824 H   0  0  0  0  0  0  0  0  0  0  0  0
   -3.2242    5.4154    4.9209 H   0  0  0  0  0  0  0  0  0  0  0  0
  1  2  1  0
  1  5  1  0
  2  3  1  0
  2  4  1  0
  2  8  1  0
  5  6  1  0
  5  7  1  0
  5 11  1  0
  8  9  1  0
  8 10  1  0
  8 17  1  0
 11 12  1  0
 11 13  1  0
 11 14  1  0
 14 15  1  0
 14 16  1  0
 14 23  1  0
 17 18  1  0
 17 19  1  0
 17 20  1  0
 20 21  1  0
 20 22  1  0
 20 26  1  0
 23 24  1  0
 23 25  1  0
 23 29  1  0
 26 27  1  0
 26 28  1  0
 26 36  1  0
 29 30  1  0
 29 31  1  0
 29 32  1  0
 32 33  1  0
 32 34  1  0
 32 35  1  0
 36 37  1  0
 36 38  1  0
 36 39  1  0
M  CHG  1   1   1
M  RAD  1   1   2
M  END
$$$$

     RDKit          3D

 39 38  0  0  0  0  0  0  0  0999 V2000
    0.1396    0.1310    3.2192 S   0  0  0  0  0  2  0  0  0  0  0  0
   -1.7101    0.3549    4.1278 Si  0  0  0  0  0  4  0  0  0  0  0  0
   -1.6819    1.3610    5.1890 H   0  0  0  0  0  0  0  0  0  0  0  0
   -2.6784    0.8616    3.1110 H   0  0  0  0  0  0  0  0  0  0  0  0
    1.8320   -0.0308    4.4175 Si  0  0  0  0  0  4  0  0  0  0  0  0
    3.0092    0.3868    3.5987 H   0  0  0  0  0  0  0  0  0  0  0  0
    2.0933   -1.4699    4.7104 H   0  0  0  0  0  0  0  0  0  0  0  0
   -2.5831   -1.5144    4.9512 Si  0  0  0  0  0  4  0  0  0  0  0  0
   -3.3636   -2.1940    3.8810 H   0  0  0  0  0  0  0  0  0  0  0  0
   -1.5936   -2.4340    5.4653 H   0  0  0  0  0  0  0  0  0  0  0  0
    1.8551    1.0766    6.2975 Si  0  0  0  0  0  4  0  0  0  0  0  0
    3.2662    1.4389    6.6271 H   0  0  0  0  0  0  0  0  0  0  0  0
    1.4526    0.1607    7.4070 H   0  0  0  0  0  0  0  0  0  0  0  0
    0.6270    2.8732    6.4024 Si  0  0  0  0  0  4  0  0  0  0  0  0
    1.2445    3.8272    7.3672 H   0  0  0  0  0  0  0  0  0  0  0  0
   -0.6841    2.5341    7.0296 H   0  0  0  0  0  0  0  0  0  0  0  0
   -4.0653   -0.9027    6.5316 Si  0  0  0  0  0  4  0  0  0  0  0  0
   -3.4388    0.2413    7.2537 H   0  0  0  0  0  0  0  0  0  0  0  0
   -5.2867   -0.3946    5.9168 H   0  0  0  0  0  0  0  0  0  0  0  0
   -4.4189   -2.5319    7.9804 Si  0  0  0  0  0  4  0  0  0  0  0  0
   -4.4728   -1.9621    9.3556 H   0  0  0  0  0  0  0  0  0  0  0  0
   -5.7147   -3.1646    7.7168 H   0  0  0  0  0  0  0  0  0  0  0  0
    0.3712    3.9556    4.5002 Si  0  0  0  0  0  4  0  0  0  0  0  0
   -0.0976    3.1438    3.4033 H   0  0  0  0  0  0  0  0  0  0  0  0
    1.6263    4.6089    4.1372 H   0  0  0  0  0  0  0  0  0  0  0  0
   -2.7521   -4.0068    7.9523 Si  0  0  0  0  0  4  0  0  0  0  0  0
   -1.4857   -3.2336    8.0845 H   0  0  0  0  0  0  0  0  0  0  0  0
   -2.9312   -4.9173    9.0847 H   0  0  0  0  0  0  0  0  0  0  0  0
   -1.1266    5.6020    4.8731 Si  0  0  0  0  0  4  0  0  0  0  0  0
   -0.8645    6.7553    4.0324 H   0  0  0  0  0  0  0  0  0  0  0  0
   -2.4866    5.1302    4.6632 H   0  0  0  0  0  0  0  0  0  0  0  0
   -0.9614    6.2506    7.0189 Si  0  0  0  0  0  4  0  0  0  0  0  0
    0.3631    5.9425    7.5411 H   0  0  0  0  0  0  0  0  0  0  0  0
   -1.9789    5.6030    7.8479 H   0  0  0  0  0  0  0  0  0  0  0  0
   -1.1631    7.6998    7.1250 H   0  0  0  0  0  0  0  0  0  0  0  0
   -2.7957   -5.0991    6.0024 Si  0  0  0  0  0  4  0  0  0  0  0  0
   -2.9985   -6.5298    6.2489 H   0  0  0  0  0  0  0  0  0  0  0  0
   -1.5223   -4.9378    5.2857 H   0  0  0  0  0  0  0  0  0  0  0  0
   -3.8854   -4.5854    5.1403 H   0  0  0  0  0  0  0  0  0  0  0  0
  1  2  1  0
  1  5  1  0
  2  3  1  0
  2  4  1  0
  2  8  1  0
  5  6  1  0
  5  7  1  0
  5 11  1  0
  8  9  1  0
  8 10  1  0
  8 17  1  0
 11 12  1  0
 11 13  1  0
 11 14  1  0
 14 15  1  0
 14 16  1  0
 14 23  1  0
 17 18  1  0
 17 19  1  0
 17 20  1  0
 20 21  1  0
 20 22  1  0
 20 26  1  0
 23 24  1  0
 23 25  1  0
 23 29  1  0
 26 27  1  0
 26 28  1  0
 26 36  1  0
 29 30  1  0
 29 31  1  0
 29 32  1  0
 32 33  1  0
 32 34  1  0
 32 35  1  0
 36 37  1  0
 36 38  1  0
 36 39  1  0
M  CHG  1   1   1
M  RAD  1   1   2
M  END
$$$$

     RDKit          3D

 39 38  0  0  0  0  0  0  0  0999 V2000
    0.1396    0.1310    3.2192 S   0  0  0  0  0  2  0  0  0  0  0  0
   -1.9428   -0.0182    3.7323 Si  0  0  0  0  0  4  0  0  0  0  0  0
   -2.6328   -0.5799    2.5426 H   0  0  0  0  0  0  0  0  0  0  0  0
   -2.5417    1.2923    3.9799 H   0  0  0  0  0  0  0  0  0  0  0  0
    1.1727    1.4839    4.5126 Si  0  0  0  0  0  4  0  0  0  0  0  0
    0.2687    2.3659    5.2453 H   0  0  0  0  0  0  0  0  0  0  0  0
    2.0934    2.3185    3.7067 H   0  0  0  0  0  0  0  0  0  0  0  0
   -2.2083   -1.3887    5.4452 Si  0  0  0  0  0  4  0  0  0  0  0  0
   -2.8609   -2.6539    5.0018 H   0  0  0  0  0  0  0  0  0  0  0  0
   -0.9010   -1.7981    6.0041 H   0  0  0  0  0  0  0  0  0  0  0  0
    2.4064    0.2849    5.9309 Si  0  0  0  0  0  4  0  0  0  0  0  0
    3.7571    0.0919    5.3856 H   0  0  0  0  0  0  0  0  0  0  0  0
    1.7617   -1.0120    6.1269 H   0  0  0  0  0  0  0  0  0  0  0  0
    2.5703    1.3536    7.8880 Si  0  0  0  0  0  4  0  0  0  0  0  0
    3.3130    2.5945    7.7377 H   0  0  0  0  0  0  0  0  0  0  0  0
    3.2224    0.4496    8.8477 H   0  0  0  0  0  0  0  0  0  0  0  0
   -3.5098   -0.5205    7.0338 Si  0  0  0  0  0  4  0  0  0  0  0  0
   -4.4125    0.5054    6.5083 H   0  0  0  0  0  0  0  0  0  0  0  0
   -2.6956    0.1189    8.0834 H   0  0  0  0  0  0  0  0  0  0  0  0
   -4.6678   -2.1645    8.0341 Si  0  0  0  0  0  4  0  0  0  0  0  0
   -6.0564   -1.7845    8.2409 H   0  0  0  0  0  0  0  0  0  0  0  0
   -4.0427   -2.5179    9.3387 H   0  0  0  0  0  0  0  0  0  0  0  0
    0.5005    1.7668    8.6613 Si  0  0  0  0  0  4  0  0  0  0  0  0
   -0.3818    0.7583    8.0741 H   0  0  0  0  0  0  0  0  0  0  0  0
    0.5067    1.6591   10.1379 H   0  0  0  0  0  0  0  0  0  0  0  0
   -4.5003   -4.0148    6.7594 Si  0  0  0  0  0  4  0  0  0  0  0  0
   -4.7513   -3.6408    5.3429 H   0  0  0  0  0  0  0  0  0  0  0  0
   -5.4473   -5.0269    7.2101 H   0  0  0  0  0  0  0  0  0  0  0  0
   -0.1743    3.8034    8.0676 Si  0  0  0  0  0  4  0  0  0  0  0  0
   -0.3287    4.6692    9.2358 H   0  0  0  0  0  0  0  0  0  0  0  0
    0.8134    4.4256    7.1597 H   0  0  0  0  0  0  0  0  0  0  0  0
   -2.1689    3.7174    7.0423 Si  0  0  0  0  0  4  0  0  0  0  0  0
   -2.3570    4.9102    6.1927 H   0  0  0  0  0  0  0  0  0  0  0  0
   -3.2439    3.6026    8.0421 H   0  0  0  0  0  0  0  0  0  0  0  0
   -2.2113    2.4959    6.2102 H   0  0  0  0  0  0  0  0  0  0  0  0
   -2.4150   -4.7895    6.9894 Si  0  0  0  0  0  4  0  0  0  0  0  0
   -1.5883   -3.9051    7.8089 H   0  0  0  0  0  0  0  0  0  0  0  0
   -2.4250   -6.1083    7.6533 H   0  0  0  0  0  0  0  0  0  0  0  0
   -1.7620   -4.8814    5.6654 H   0  0  0  0  0  0  0  0  0  0  0  0
  1  2  1  0
  1  5  1  0
  2  3  1  0
  2  4  1  0
  2  8  1  0
  5  6  1  0
  5  7  1  0
  5 11  1  0
  8  9  1  0
  8 10  1  0
  8 17  1  0
 11 12  1  0
 11 13  1  0
 11 14  1  0
 14 15  1  0
 14 16  1  0
 14 23  1  0
 17 18  1  0
 17 19  1  0
 17 20  1  0
 20 21  1  0
 20 22  1  0
 20 26  1  0
 23 24  1  0
 23 25  1  0
 23 29  1  0
 26 27  1  0
 26 28  1  0
 26 36  1  0
 29 30  1  0
 29 31  1  0
 29 32  1  0
 32 33  1  0
 32 34  1  0
 32 35  1  0
 36 37  1  0
 36 38  1  0
 36 39  1  0
M  CHG  1   1   1
M  RAD  1   1   2
M  END
$$$$

     RDKit          3D

 39 38  0  0  0  0  0  0  0  0999 V2000
    0.1396    0.1310    3.2192 S   0  0  0  0  0  2  0  0  0  0  0  0
    0.6078   -1.6790    4.1146 Si  0  0  0  0  0  4  0  0  0  0  0  0
   -0.2922   -1.9910    5.2246 H   0  0  0  0  0  0  0  0  0  0  0  0
    0.4116   -2.7674    3.1121 H   0  0  0  0  0  0  0  0  0  0  0  0
   -0.2260    1.7829    4.4291 Si  0  0  0  0  0  4  0  0  0  0  0  0
   -1.0619    2.7422    3.6466 H   0  0  0  0  0  0  0  0  0  0  0  0
    1.0500    2.5220    4.6536 H   0  0  0  0  0  0  0  0  0  0  0  0
    2.7021   -1.8559    4.8336 Si  0  0  0  0  0  4  0  0  0  0  0  0
    3.5524   -2.3625    3.7214 H   0  0  0  0  0  0  0  0  0  0  0  0
    3.2530   -0.6089    5.3138 H   0  0  0  0  0  0  0  0  0  0  0  0
   -1.1777    1.4358    6.3616 Si  0  0  0  0  0  4  0  0  0  0  0  0
   -1.9833    2.6396    6.7264 H   0  0  0  0  0  0  0  0  0  0  0  0
   -0.1244    1.3764    7.4194 H   0  0  0  0  0  0  0  0  0  0  0  0
   -2.4387   -0.3320    6.5400 Si  0  0  0  0  0  4  0  0  0  0  0  0
   -3.4960   -0.0730    7.5585 H   0  0  0  0  0  0  0  0  0  0  0  0
   -1.6406   -1.4449    7.1333 H   0  0  0  0  0  0  0  0  0  0  0  0
    2.7148   -3.4497    6.4237 Si  0  0  0  0  0  4  0  0  0  0  0  0
    1.4639   -3.2484    7.2093 H   0  0  0  0  0  0  0  0  0  0  0  0
    2.6242   -4.7744    5.8196 H   0  0  0  0  0  0  0  0  0  0  0  0
    4.4381   -3.2173    7.7856 Si  0  0  0  0  0  4  0  0  0  0  0  0
    3.9916   -3.4557    9.1865 H   0  0  0  0  0  0  0  0  0  0  0  0
    5.4613   -4.2201    7.4749 H   0  0  0  0  0  0  0  0  0  0  0  0
   -3.4635   -0.9525    4.6906 Si  0  0  0  0  0  4  0  0  0  0  0  0
   -2.5973   -1.1211    3.5492 H   0  0  0  0  0  0  0  0  0  0  0  0
   -4.5239    0.0017    4.3761 H   0  0  0  0  0  0  0  0  0  0  0  0
    5.2511   -1.1469    7.7054 Si  0  0  0  0  0  4  0  0  0  0  0  0
    4.0994   -0.2205    7.8914 H   0  0  0  0  0  0  0  0  0  0  0  0
    6.2243   -0.9979    8.7890 H   0  0  0  0  0  0  0  0  0  0  0  0
   -4.4778   -2.9210    5.1258 Si  0  0  0  0  0  4  0  0  0  0  0  0
   -5.6923   -3.0734    4.3465 H   0  0  0  0  0  0  0  0  0  0  0  0
   -3.5809   -4.0387    4.8758 H   0  0  0  0  0  0  0  0  0  0  0  0
   -5.0340   -2.9764    7.3030 Si  0  0  0  0  0  4  0  0  0  0  0  0
   -5.1710   -1.6236    7.8257 H   0  0  0  0  0  0  0  0  0  0  0  0
   -4.0364   -3.7068    8.0861 H   0  0  0  0  0  0  0  0  0  0  0  0
   -6.3196   -3.6609    7.4780 H   0  0  0  0  0  0  0  0  0  0  0  0
    6.1921   -0.8244    5.7034 Si  0  0  0  0  0  4  0  0  0  0  0  0
    7.6164   -0.5245    5.8763 H   0  0  0  0  0  0  0  0  0  0  0  0
    5.5692    0.3133    5.0115 H   0  0  0  0  0  0  0  0  0  0  0  0
    6.0387   -2.0286    4.8542 H   0  0  0  0  0  0  0  0  0  0  0  0
  1  2  1  0
  1  5  1  0
  2  3  1  0
  2  4  1  0
  2  8  1  0
  5  6  1  0
  5  7  1  0
  5 11  1  0
  8  9  1  0
  8 10  1  0
  8 17  1  0
 11 12  1  0
 11 13  1  0
 11 14  1  0
 14 15  1  0
 14 16  1  0
 14 23  1  0
 17 18  1  0
 17 19  1  0
 17 20  1  0
 20 21  1  0
 20 22  1  0
 20 26  1  0
 23 24  1  0
 23 25  1  0
 23 29  1  0
 26 27  1  0
 26 28  1  0
 26 36  1  0
 29 30  1  0
 29 31  1  0
 29 32  1  0
 32 33  1  0
 32 34  1  0
 32 35  1  0
 36 37  1  0
 36 38  1  0
 36 39  1  0
M  CHG  1   1   1
M  RAD  1   1   2
M  END
$$$$

     RDKit          3D

 39 38  0  0  0  0  0  0  0  0999 V2000
    0.1396    0.1310    3.2192 S   0  0  0  0  0  2  0  0  0  0  0  0
    2.1243    0.9389    2.8973 Si  0  0  0  0  0  4  0  0  0  0  0  0
    2.6201    0.3514    1.6525 H   0  0  0  0  0  0  0  0  0  0  0  0
    2.0655    2.3870    2.7218 H   0  0  0  0  0  0  0  0  0  0  0  0
   -0.1338   -0.2532    5.2909 Si  0  0  0  0  0  4  0  0  0  0  0  0
   -1.3995    0.3870    5.7271 H   0  0  0  0  0  0  0  0  0  0  0  0
    0.9268    0.2766    6.1244 H   0  0  0  0  0  0  0  0  0  0  0  0
    3.3684    0.3464    4.6499 Si  0  0  0  0  0  4  0  0  0  0  0  0
    2.8004    1.0309    5.8363 H   0  0  0  0  0  0  0  0  0  0  0  0
    3.2849   -1.1121    4.7814 H   0  0  0  0  0  0  0  0  0  0  0  0
   -0.2731   -2.4683    5.6908 Si  0  0  0  0  0  4  0  0  0  0  0  0
    1.0379   -2.9385    6.0882 H   0  0  0  0  0  0  0  0  0  0  0  0
   -0.6466   -3.0856    4.3867 H   0  0  0  0  0  0  0  0  0  0  0  0
   -1.8701   -2.8408    7.1451 Si  0  0  0  0  0  4  0  0  0  0  0  0
   -3.1330   -3.1688    6.4243 H   0  0  0  0  0  0  0  0  0  0  0  0
   -2.1679   -1.5748    7.8762 H   0  0  0  0  0  0  0  0  0  0  0  0
    5.4765    0.9761    4.4361 Si  0  0  0  0  0  4  0  0  0  0  0  0
    5.6890    1.6223    3.1248 H   0  0  0  0  0  0  0  0  0  0  0  0
    5.8442    1.9964    5.4528 H   0  0  0  0  0  0  0  0  0  0  0  0
    6.8169   -0.7666    4.7226 Si  0  0  0  0  0  4  0  0  0  0  0  0
    8.0429   -0.3711    5.4130 H   0  0  0  0  0  0  0  0  0  0  0  0
    7.1707   -1.2914    3.3861 H   0  0  0  0  0  0  0  0  0  0  0  0
   -1.4366   -4.3971    8.6213 Si  0  0  0  0  0  4  0  0  0  0  0  0
   -0.6531   -3.7948    9.7373 H   0  0  0  0  0  0  0  0  0  0  0  0
   -2.7247   -4.8188    9.2457 H   0  0  0  0  0  0  0  0  0  0  0  0
    5.8054   -2.4228    5.8309 Si  0  0  0  0  0  4  0  0  0  0  0  0
    4.6876   -2.9362    5.0384 H   0  0  0  0  0  0  0  0  0  0  0  0
    6.7987   -3.4990    6.0060 H   0  0  0  0  0  0  0  0  0  0  0  0
   -0.4023   -6.1633    7.8685 Si  0  0  0  0  0  4  0  0  0  0  0  0
   -1.3400   -7.2103    7.4057 H   0  0  0  0  0  0  0  0  0  0  0  0
    0.3678   -6.7856    8.9843 H   0  0  0  0  0  0  0  0  0  0  0  0
    1.0389   -5.7435    6.2352 Si  0  0  0  0  0  4  0  0  0  0  0  0
    0.4176   -5.1208    5.0832 H   0  0  0  0  0  0  0  0  0  0  0  0
    2.1878   -4.9813    6.7585 H   0  0  0  0  0  0  0  0  0  0  0  0
    1.5904   -7.0476    5.7831 H   0  0  0  0  0  0  0  0  0  0  0  0
    5.1127   -1.7843    7.8313 Si  0  0  0  0  0  4  0  0  0  0  0  0
    5.1320   -2.9747    8.7201 H   0  0  0  0  0  0  0  0  0  0  0  0
    5.9615   -0.7567    8.4319 H   0  0  0  0  0  0  0  0  0  0  0  0
    3.6980   -1.3538    7.7728 H   0  0  0  0  0  0  0  0  0  0  0  0
  1  2  1  0
  1  5  1  0
  2  3  1  0
  2  4  1  0
  2  8  1  0
  5  6  1  0
  5  7  1  0
  5 11  1  0
  8  9  1  0
  8 10  1  0
  8 17  1  0
 11 12  1  0
 11 13  1  0
 11 14  1  0
 14 15  1  0
 14 16  1  0
 14 23  1  0
 17 18  1  0
 17 19  1  0
 17 20  1  0
 20 21  1  0
 20 22  1  0
 20 26  1  0
 23 24  1  0
 23 25  1  0
 23 29  1  0
 26 27  1  0
 26 28  1  0
 26 36  1  0
 29 30  1  0
 29 31  1  0
 29 32  1  0
 32 33  1  0
 32 34  1  0
 32 35  1  0
 36 37  1  0
 36 38  1  0
 36 39  1  0
M  CHG  1   1   1
M  RAD  1   1   2
M  END
$$$$

     RDKit          3D

 39 38  0  0  0  0  0  0  0  0999 V2000
    0.1396    0.1310    3.2192 S   0  0  0  0  0  2  0  0  0  0  0  0
   -1.2215   -0.5662    4.6994 Si  0  0  0  0  0  4  0  0  0  0  0  0
   -1.5714   -1.9763    4.3669 H   0  0  0  0  0  0  0  0  0  0  0  0
   -0.6492   -0.5864    6.0396 H   0  0  0  0  0  0  0  0  0  0  0  0
    1.4158    1.6728    3.9436 Si  0  0  0  0  0  4  0  0  0  0  0  0
    2.1454    2.2337    2.7759 H   0  0  0  0  0  0  0  0  0  0  0  0
    2.4421    1.1753    4.8672 H   0  0  0  0  0  0  0  0  0  0  0  0
   -3.0907    0.6300    4.5724 Si  0  0  0  0  0  4  0  0  0  0  0  0
   -3.3228    0.9313    3.1333 H   0  0  0  0  0  0  0  0  0  0  0  0
   -3.0006    1.9061    5.2612 H   0  0  0  0  0  0  0  0  0  0  0  0
    0.2997    3.3333    4.8947 Si  0  0  0  0  0  4  0  0  0  0  0  0
    1.2137    4.5072    4.9601 H   0  0  0  0  0  0  0  0  0  0  0  0
   -0.8155    3.7252    4.0375 H   0  0  0  0  0  0  0  0  0  0  0  0
   -0.3356    2.8659    6.9627 Si  0  0  0  0  0  4  0  0  0  0  0  0
   -0.9281    1.5457    7.1057 H   0  0  0  0  0  0  0  0  0  0  0  0
   -1.3871    3.8508    7.3442 H   0  0  0  0  0  0  0  0  0  0  0  0
   -4.8140   -0.5767    5.3174 Si  0  0  0  0  0  4  0  0  0  0  0  0
   -4.4375   -1.9743    5.5274 H   0  0  0  0  0  0  0  0  0  0  0  0
   -5.9250   -0.5101    4.3704 H   0  0  0  0  0  0  0  0  0  0  0  0
   -5.5265    0.3171    7.2466 Si  0  0  0  0  0  4  0  0  0  0  0  0
   -5.9853    1.6846    6.9690 H   0  0  0  0  0  0  0  0  0  0  0  0
   -6.6384   -0.4924    7.7450 H   0  0  0  0  0  0  0  0  0  0  0  0
    1.3194    3.0678    8.4241 Si  0  0  0  0  0  4  0  0  0  0  0  0
    2.1041    4.2971    8.1939 H   0  0  0  0  0  0  0  0  0  0  0  0
    0.7046    3.2117    9.7710 H   0  0  0  0  0  0  0  0  0  0  0  0
   -3.8648    0.3613    8.7303 Si  0  0  0  0  0  4  0  0  0  0  0  0
   -2.6079    0.0142    8.0312 H   0  0  0  0  0  0  0  0  0  0  0  0
   -4.0772   -0.7016    9.7371 H   0  0  0  0  0  0  0  0  0  0  0  0
    2.7009    1.3275    8.3781 Si  0  0  0  0  0  4  0  0  0  0  0  0
    3.6169    1.4480    9.5279 H   0  0  0  0  0  0  0  0  0  0  0  0
    3.4305    1.3509    7.1019 H   0  0  0  0  0  0  0  0  0  0  0  0
    1.5318   -0.5495    8.6087 Si  0  0  0  0  0  4  0  0  0  0  0  0
    0.1436   -0.2710    9.0380 H   0  0  0  0  0  0  0  0  0  0  0  0
    1.4898   -1.2258    7.2950 H   0  0  0  0  0  0  0  0  0  0  0  0
    2.2014   -1.4812    9.5333 H   0  0  0  0  0  0  0  0  0  0  0  0
   -3.7317    2.3698    9.6772 Si  0  0  0  0  0  4  0  0  0  0  0  0
   -4.6046    2.3771   10.8726 H   0  0  0  0  0  0  0  0  0  0  0  0
   -4.2492    3.3866    8.7505 H   0  0  0  0  0  0  0  0  0  0  0  0
   -2.3726    2.6626   10.1260 H   0  0  0  0  0  0  0  0  0  0  0  0
  1  2  1  0
  1  5  1  0
  2  3  1  0
  2  4  1  0
  2  8  1  0
  5  6  1  0
  5  7  1  0
  5 11  1  0
  8  9  1  0
  8 10  1  0
  8 17  1  0
 11 12  1  0
 11 13  1  0
 11 14  1  0
 14 15  1  0
 14 16  1  0
 14 23  1  0
 17 18  1  0
 17 19  1  0
 17 20  1  0
 20 21  1  0
 20 22  1  0
 20 26  1  0
 23 24  1  0
 23 25  1  0
 23 29  1  0
 26 27  1  0
 26 28  1  0
 26 36  1  0
 29 30  1  0
 29 31  1  0
 29 32  1  0
 32 33  1  0
 32 34  1  0
 32 35  1  0
 36 37  1  0
 36 38  1  0
 36 39  1  0
M  CHG  1   1   1
M  RAD  1   1   2
M  END
$$$$

     RDKit          3D

 39 38  0  0  0  0  0  0  0  0999 V2000
    0.1396    0.1310    3.2192 S   0  0  0  0  0  2  0  0  0  0  0  0
    1.0547    1.4628    4.6044 Si  0  0  0  0  0  4  0  0  0  0  0  0
    0.6791    2.8517    4.2155 H   0  0  0  0  0  0  0  0  0  0  0  0
    0.5886    1.2754    5.9725 H   0  0  0  0  0  0  0  0  0  0  0  0
   -0.2224   -1.7936    4.0529 Si  0  0  0  0  0  4  0  0  0  0  0  0
   -0.6368   -2.6905    2.9418 H   0  0  0  0  0  0  0  0  0  0  0  0
   -1.3292   -1.7976    5.0166 H   0  0  0  0  0  0  0  0  0  0  0  0
    3.2623    1.2920    4.4091 Si  0  0  0  0  0  4  0  0  0  0  0  0
    3.5600    1.0661    2.9683 H   0  0  0  0  0  0  0  0  0  0  0  0
    3.8147    0.1617    5.1361 H   0  0  0  0  0  0  0  0  0  0  0  0
    1.5819   -2.6765    4.9869 Si  0  0  0  0  0  4  0  0  0  0  0  0
    1.3401   -4.1387    5.1333 H   0  0  0  0  0  0  0  0  0  0  0  0
    2.7187   -2.5343    4.0817 H   0  0  0  0  0  0  0  0  0  0  0  0
    1.9890   -1.8620    7.0043 Si  0  0  0  0  0  4  0  0  0  0  0  0
    1.8858   -0.4135    7.0793 H   0  0  0  0  0  0  0  0  0  0  0  0
    3.3951   -2.2099    7.3550 H   0  0  0  0  0  0  0  0  0  0  0  0
    4.2277    3.2070    5.0272 Si  0  0  0  0  0  4  0  0  0  0  0  0
    3.2385    4.2671    5.2192 H   0  0  0  0  0  0  0  0  0  0  0  0
    5.2028    3.6287    4.0238 H   0  0  0  0  0  0  0  0  0  0  0  0
    5.3460    2.8548    6.9386 Si  0  0  0  0  0  4  0  0  0  0  0  0
    6.3908    1.8569    6.6738 H   0  0  0  0  0  0  0  0  0  0  0  0
    5.9547    4.1185    7.3542 H   0  0  0  0  0  0  0  0  0  0  0  0
    0.6816   -2.7523    8.5578 Si  0  0  0  0  0  4  0  0  0  0  0  0
    0.5696   -4.2164    8.4036 H   0  0  0  0  0  0  0  0  0  0  0  0
    1.3368   -2.5204    9.8729 H   0  0  0  0  0  0  0  0  0  0  0  0
    3.9583    2.1010    8.5104 Si  0  0  0  0  0  4  0  0  0  0  0  0
    2.6644    1.7753    7.8710 H   0  0  0  0  0  0  0  0  0  0  0  0
    3.6736    3.1858    9.4752 H   0  0  0  0  0  0  0  0  0  0  0  0
   -1.3626   -1.8804    8.5393 Si  0  0  0  0  0  4  0  0  0  0  0  0
   -2.0704   -2.3641    9.7397 H   0  0  0  0  0  0  0  0  0  0  0  0
   -2.0367   -2.3102    7.3054 H   0  0  0  0  0  0  0  0  0  0  0  0
   -1.2213    0.3353    8.6555 Si  0  0  0  0  0  4  0  0  0  0  0  0
    0.1459    0.7704    9.0167 H   0  0  0  0  0  0  0  0  0  0  0  0
   -1.5519    0.8847    7.3237 H   0  0  0  0  0  0  0  0  0  0  0  0
   -2.2214    0.8823    9.5894 H   0  0  0  0  0  0  0  0  0  0  0  0
    4.8305    0.3195    9.5172 Si  0  0  0  0  0  4  0  0  0  0  0  0
    5.6424    0.7863   10.6634 H   0  0  0  0  0  0  0  0  0  0  0  0
    5.7375   -0.3746    8.5917 H   0  0  0  0  0  0  0  0  0  0  0  0
    3.7914   -0.5605   10.0464 H   0  0  0  0  0  0  0  0  0  0  0  0
  1  2  1  0
  1  5  1  0
  2  3  1  0
  2  4  1  0
  2  8  1  0
  5  6  1  0
  5  7  1  0
  5 11  1  0
  8  9  1  0
  8 10  1  0
  8 17  1  0
 11 12  1  0
 11 13  1  0
 11 14  1  0
 14 15  1  0
 14 16  1  0
 14 23  1  0
 17 18  1  0
 17 19  1  0
 17 20  1  0
 20 21  1  0
 20 22  1  0
 20 26  1  0
 23 24  1  0
 23 25  1  0
 23 29  1  0
 26 27  1  0
 26 28  1  0
 26 36  1  0
 29 30  1  0
 29 31  1  0
 29 32  1  0
 32 33  1  0
 32 34  1  0
 32 35  1  0
 36 37  1  0
 36 38  1  0
 36 39  1  0
M  CHG  1   1   1
M  RAD  1   1   2
M  END
$$$$

     RDKit          3D

 39 38  0  0  0  0  0  0  0  0999 V2000
    0.1396    0.1310    3.2192 S   0  0  0  0  0  2  0  0  0  0  0  0
    2.1347    0.8254    3.6190 Si  0  0  0  0  0  4  0  0  0  0  0  0
    2.6092    1.4879    2.3769 H   0  0  0  0  0  0  0  0  0  0  0  0
    3.0573   -0.2783    3.8799 H   0  0  0  0  0  0  0  0  0  0  0  0
   -0.4607   -1.3780    4.6095 Si  0  0  0  0  0  4  0  0  0  0  0  0
    0.6676   -1.9682    5.3243 H   0  0  0  0  0  0  0  0  0  0  0  0
   -1.1708   -2.4545    3.8809 H   0  0  0  0  0  0  0  0  0  0  0  0
    2.1126    2.2958    5.2683 Si  0  0  0  0  0  4  0  0  0  0  0  0
    2.4026    3.6631    4.7490 H   0  0  0  0  0  0  0  0  0  0  0  0
    0.7682    2.3867    5.8795 H   0  0  0  0  0  0  0  0  0  0  0  0
   -1.8996   -0.4659    6.0477 Si  0  0  0  0  0  4  0  0  0  0  0  0
   -3.2762   -0.6460    5.5664 H   0  0  0  0  0  0  0  0  0  0  0  0
   -1.5990    0.9595    6.1660 H   0  0  0  0  0  0  0  0  0  0  0  0
   -1.7053   -1.4501    8.0459 Si  0  0  0  0  0  4  0  0  0  0  0  0
   -2.1128   -2.8440    7.9764 H   0  0  0  0  0  0  0  0  0  0  0  0
   -2.5260   -0.6971    9.0066 H   0  0  0  0  0  0  0  0  0  0  0  0
    3.6566    1.8589    6.8164 Si  0  0  0  0  0  4  0  0  0  0  0  0
    4.7684    1.0715    6.2803 H   0  0  0  0  0  0  0  0  0  0  0  0
    3.0760    1.0835    7.9277 H   0  0  0  0  0  0  0  0  0  0  0  0
    4.3978    3.7865    7.6991 Si  0  0  0  0  0  4  0  0  0  0  0  0
    5.8446    3.7798    7.8470 H   0  0  0  0  0  0  0  0  0  0  0  0
    3.7575    4.0300    9.0214 H   0  0  0  0  0  0  0  0  0  0  0  0
    0.4316   -1.2905    8.7253 Si  0  0  0  0  0  4  0  0  0  0  0  0
    1.0030   -0.1199    8.0594 H   0  0  0  0  0  0  0  0  0  0  0  0
    0.4589   -1.1200   10.1957 H   0  0  0  0  0  0  0  0  0  0  0  0
    3.7122    5.4736    6.3725 Si  0  0  0  0  0  4  0  0  0  0  0  0
    3.9917    5.1104    4.9585 H   0  0  0  0  0  0  0  0  0  0  0  0
    4.3879    6.7120    6.7390 H   0  0  0  0  0  0  0  0  0  0  0  0
    1.5778   -3.1155    8.1673 Si  0  0  0  0  0  4  0  0  0  0  0  0
    1.9956   -3.8594    9.3548 H   0  0  0  0  0  0  0  0  0  0  0  0
    0.7447   -4.0082    7.3332 H   0  0  0  0  0  0  0  0  0  0  0  0
    3.4408   -2.5752    7.0383 Si  0  0  0  0  0  4  0  0  0  0  0  0
    3.8913   -3.7196    6.2213 H   0  0  0  0  0  0  0  0  0  0  0  0
    4.4913   -2.1466    7.9769 H   0  0  0  0  0  0  0  0  0  0  0  0
    3.1363   -1.4224    6.1640 H   0  0  0  0  0  0  0  0  0  0  0  0
    1.5097    5.7057    6.6830 Si  0  0  0  0  0  4  0  0  0  0  0  0
    0.9700    4.6798    7.5737 H   0  0  0  0  0  0  0  0  0  0  0  0
    1.2108    7.0133    7.3002 H   0  0  0  0  0  0  0  0  0  0  0  0
    0.8009    5.5685    5.3920 H   0  0  0  0  0  0  0  0  0  0  0  0
  1  2  1  0
  1  5  1  0
  2  3  1  0
  2  4  1  0
  2  8  1  0
  5  6  1  0
  5  7  1  0
  5 11  1  0
  8  9  1  0
  8 10  1  0
  8 17  1  0
 11 12  1  0
 11 13  1  0
 11 14  1  0
 14 15  1  0
 14 16  1  0
 14 23  1  0
 17 18  1  0
 17 19  1  0
 17 20  1  0
 20 21  1  0
 20 22  1  0
 20 26  1  0
 23 24  1  0
 23 25  1  0
 23 29  1  0
 26 27  1  0
 26 28  1  0
 26 36  1  0
 29 30  1  0
 29 31  1  0
 29 32  1  0
 32 33  1  0
 32 34  1  0
 32 35  1  0
 36 37  1  0
 36 38  1  0
 36 39  1  0
M  CHG  1   1   1
M  RAD  1   1   2
M  END
$$$$
