
     RDKit          3D

 39 38  0  0  0  0  0  0  0  0999 V2000
    1.5430   -0.0331   -2.5237 S   0  0  0  0  0  2  0  0  0  0  0  0
    1.9079    1.8633   -3.4020 Si  0  0  0  0  0  4  0  0  0  0  0  0
    0.8933    2.1481   -4.4465 H   0  0  0  0  0  0  0  0  0  0  0  0
    1.7339    2.8965   -2.3629 H   0  0  0  0  0  0  0  0  0  0  0  0
    3.1249   -1.4270   -2.8891 Si  0  0  0  0  0  4  0  0  0  0  0  0
    4.4024   -0.9660   -2.3058 H   0  0  0  0  0  0  0  0  0  0  0  0
    2.7662   -2.6873   -2.2063 H   0  0  0  0  0  0  0  0  0  0  0  0
    3.9506    2.0562   -4.2335 Si  0  0  0  0  0  4  0  0  0  0  0  0
    4.7545    0.8840   -3.7847 H   0  0  0  0  0  0  0  0  0  0  0  0
    4.6511    3.2459   -3.7390 H   0  0  0  0  0  0  0  0  0  0  0  0
    3.3634   -1.8747   -5.0503 Si  0  0  0  0  0  4  0  0  0  0  0  0
    4.3837   -1.0152   -5.6813 H   0  0  0  0  0  0  0  0  0  0  0  0
    3.8708   -3.2634   -5.1715 H   0  0  0  0  0  0  0  0  0  0  0  0
    1.4396   -1.7698   -6.1522 Si  0  0  0  0  0  4  0  0  0  0  0  0
    0.6752   -3.0176   -6.0639 H   0  0  0  0  0  0  0  0  0  0  0  0
    0.5927   -0.7082   -5.5570 H   0  0  0  0  0  0  0  0  0  0  0  0
    3.8340    2.1491   -6.4407 Si  0  0  0  0  0  4  0  0  0  0  0  0
    2.4438    1.9670   -6.9274 H   0  0  0  0  0  0  0  0  0  0  0  0
    4.7311    1.1147   -6.9924 H   0  0  0  0  0  0  0  0  0  0  0  0
    4.5389    4.1165   -7.2347 Si  0  0  0  0  0  4  0  0  0  0  0  0
    4.4595    4.0338   -8.7126 H   0  0  0  0  0  0  0  0  0  0  0  0
    3.6270    5.1563   -6.8026 H   0  0  0  0  0  0  0  0  0  0  0  0
    1.8271   -1.3430   -8.2938 Si  0  0  0  0  0  4  0  0  0  0  0  0
    0.9331   -2.0824   -9.1879 H   0  0  0  0  0  0  0  0  0  0  0  0
    1.6297    0.1017   -8.5114 H   0  0  0  0  0  0  0  0  0  0  0  0
    6.6525    4.5113   -6.6954 Si  0  0  0  0  0  4  0  0  0  0  0  0
    6.6808    5.5920   -5.7052 H   0  0  0  0  0  0  0  0  0  0  0  0
    7.4205    4.9739   -7.8658 H   0  0  0  0  0  0  0  0  0  0  0  0
    3.9286   -1.8183   -8.8741 Si  0  0  0  0  0  4  0  0  0  0  0  0
    4.0496   -1.5855  -10.3223 H   0  0  0  0  0  0  0  0  0  0  0  0
    4.8894   -0.9501   -8.2077 H   0  0  0  0  0  0  0  0  0  0  0  0
    4.4526   -3.9301   -8.3933 Si  0  0  0  0  0  4  0  0  0  0  0  0
    4.1546   -4.7499   -9.5658 H   0  0  0  0  0  0  0  0  0  0  0  0
    5.8974   -4.0013   -8.0581 H   0  0  0  0  0  0  0  0  0  0  0  0
    3.6873   -4.4312   -7.2616 H   0  0  0  0  0  0  0  0  0  0  0  0
    7.6664    2.6999   -5.8863 Si  0  0  0  0  0  4  0  0  0  0  0  0
    8.4801    2.0745   -6.9233 H   0  0  0  0  0  0  0  0  0  0  0  0
    8.4344    3.0870   -4.7032 H   0  0  0  0  0  0  0  0  0  0  0  0
    6.6150    1.7342   -5.5083 H   0  0  0  0  0  0  0  0  0  0  0  0
  1  2  1  0
  1  5  1  0
  2  3  1  0
  2  4  1  0
  2  8  1  0
  5  6  1  0
  5  7  1  0
  5 11  1  0
  8  9  1  0
  8 10  1  0
  8 17  1  0
 11 12  1  0
 11 13  1  0
 11 14  1  0
 14 15  1  0
 14 16  1  0
 14 23  1  0
 17 18  1  0
 17 19  1  0
 17 20  1  0
 20 21  1  0
 20 22  1  0
 20 26  1  0
 23 24  1  0
 23 25  1  0
 23 29  1  0
 26 27  1  0
 26 28  1  0
 26 36  1  0
 29 30  1  0
 29 31  1  0
 29 32  1  0
 32 33  1  0
 32 34  1  0
 32 35  1  0
 36 37  1  0
 36 38  1  0
 36 39  1  0
M  CHG  1   1   1
M  RAD  1   1   2
M  END
$$$$

     RDKit          3D

 39 38  0  0  0  0  0  0  0  0999 V2000
    1.5430   -0.0331   -2.5237 S   0  0  0  0  0  2  0  0  0  0  0  0
    1.5476    1.7827   -3.5747 Si  0  0  0  0  0  4  0  0  0  0  0  0
    0.3358    1.9908   -4.3759 H   0  0  0  0  0  0  0  0  0  0  0  0
    1.5453    2.8755   -2.5663 H   0  0  0  0  0  0  0  0  0  0  0  0
    1.5074   -1.7847   -3.6463 Si  0  0  0  0  0  4  0  0  0  0  0  0
    2.8946   -2.1333   -4.0730 H   0  0  0  0  0  0  0  0  0  0  0  0
    1.1350   -2.9092   -2.7353 H   0  0  0  0  0  0  0  0  0  0  0  0
    3.3644    2.1095   -4.8136 Si  0  0  0  0  0  4  0  0  0  0  0  0
    4.5443    2.2318   -3.9264 H   0  0  0  0  0  0  0  0  0  0  0  0
    3.2093    3.4354   -5.4585 H   0  0  0  0  0  0  0  0  0  0  0  0
    0.1307   -1.8240   -5.3575 Si  0  0  0  0  0  4  0  0  0  0  0  0
    0.9326   -1.9178   -6.6118 H   0  0  0  0  0  0  0  0  0  0  0  0
   -0.7194   -3.0489   -5.3588 H   0  0  0  0  0  0  0  0  0  0  0  0
   -1.1893   -0.0743   -5.5231 Si  0  0  0  0  0  4  0  0  0  0  0  0
   -1.5933    0.4871   -4.2297 H   0  0  0  0  0  0  0  0  0  0  0  0
   -0.5164    0.9507   -6.3637 H   0  0  0  0  0  0  0  0  0  0  0  0
    3.6332    0.6090   -6.3943 Si  0  0  0  0  0  4  0  0  0  0  0  0
    3.2578   -0.7483   -6.0004 H   0  0  0  0  0  0  0  0  0  0  0  0
    5.0847    0.5565   -6.7343 H   0  0  0  0  0  0  0  0  0  0  0  0
    2.5593    1.1375   -8.2796 Si  0  0  0  0  0  4  0  0  0  0  0  0
    2.6882   -0.0172   -9.1972 H   0  0  0  0  0  0  0  0  0  0  0  0
    1.1338    1.3672   -8.0581 H   0  0  0  0  0  0  0  0  0  0  0  0
   -3.0287   -0.6890   -6.6472 Si  0  0  0  0  0  4  0  0  0  0  0  0
   -4.1964    0.0300   -6.1019 H   0  0  0  0  0  0  0  0  0  0  0  0
   -3.2168   -2.1600   -6.5559 H   0  0  0  0  0  0  0  0  0  0  0  0
    3.5518    2.8781   -9.2428 Si  0  0  0  0  0  4  0  0  0  0  0  0
    3.1718    2.8907  -10.6759 H   0  0  0  0  0  0  0  0  0  0  0  0
    5.0069    2.7152   -9.0935 H   0  0  0  0  0  0  0  0  0  0  0  0
   -2.8710   -0.1102   -8.8061 Si  0  0  0  0  0  4  0  0  0  0  0  0
   -2.7517    1.3757   -8.8313 H   0  0  0  0  0  0  0  0  0  0  0  0
   -4.0680   -0.5679   -9.4839 H   0  0  0  0  0  0  0  0  0  0  0  0
   -1.0004   -0.9223   -9.7147 Si  0  0  0  0  0  4  0  0  0  0  0  0
    0.0369   -1.0771   -8.6783 H   0  0  0  0  0  0  0  0  0  0  0  0
   -1.2348   -2.2287  -10.3229 H   0  0  0  0  0  0  0  0  0  0  0  0
   -0.4401    0.0232  -10.7158 H   0  0  0  0  0  0  0  0  0  0  0  0
    2.8320    4.7861   -8.3383 Si  0  0  0  0  0  4  0  0  0  0  0  0
    2.1627    5.6447   -9.3385 H   0  0  0  0  0  0  0  0  0  0  0  0
    3.9513    5.5513   -7.7756 H   0  0  0  0  0  0  0  0  0  0  0  0
    1.8161    4.4754   -7.2977 H   0  0  0  0  0  0  0  0  0  0  0  0
  1  2  1  0
  1  5  1  0
  2  3  1  0
  2  4  1  0
  2  8  1  0
  5  6  1  0
  5  7  1  0
  5 11  1  0
  8  9  1  0
  8 10  1  0
  8 17  1  0
 11 12  1  0
 11 13  1  0
 11 14  1  0
 14 15  1  0
 14 16  1  0
 14 23  1  0
 17 18  1  0
 17 19  1  0
 17 20  1  0
 20 21  1  0
 20 22  1  0
 20 26  1  0
 23 24  1  0
 23 25  1  0
 23 29  1  0
 26 27  1  0
 26 28  1  0
 26 36  1  0
 29 30  1  0
 29 31  1  0
 29 32  1  0
 32 33  1  0
 32 34  1  0
 32 35  1  0
 36 37  1  0
 36 38  1  0
 36 39  1  0
M  CHG  1   1   1
M  RAD  1   1   2
M  END
$$$$

     RDKit          3D

 39 38  0  0  0  0  0  0  0  0999 V2000
    1.5430   -0.0331   -2.5237 S   0  0  0  0  0  2  0  0  0  0  0  0
    3.5166   -0.8631   -2.7575 Si  0  0  0  0  0  4  0  0  0  0  0  0
    4.3991   -0.2993   -1.7283 H   0  0  0  0  0  0  0  0  0  0  0  0
    3.5030   -2.3255   -2.6596 H   0  0  0  0  0  0  0  0  0  0  0  0
    1.4791    1.8087   -3.6110 Si  0  0  0  0  0  4  0  0  0  0  0  0
    1.3506    2.8992   -2.6141 H   0  0  0  0  0  0  0  0  0  0  0  0
    2.6967    2.0451   -4.3843 H   0  0  0  0  0  0  0  0  0  0  0  0
    4.2836   -0.2070   -4.7584 Si  0  0  0  0  0  4  0  0  0  0  0  0
    5.1711    0.9582   -4.6173 H   0  0  0  0  0  0  0  0  0  0  0  0
    3.1634    0.1463   -5.6206 H   0  0  0  0  0  0  0  0  0  0  0  0
   -0.2598    1.9215   -4.9750 Si  0  0  0  0  0  4  0  0  0  0  0  0
   -1.4903    1.4284   -4.3091 H   0  0  0  0  0  0  0  0  0  0  0  0
   -0.5027    3.3303   -5.3028 H   0  0  0  0  0  0  0  0  0  0  0  0
    0.0342    0.7301   -6.8176 Si  0  0  0  0  0  4  0  0  0  0  0  0
   -1.2551    0.7205   -7.5579 H   0  0  0  0  0  0  0  0  0  0  0  0
    0.3491   -0.6663   -6.4020 H   0  0  0  0  0  0  0  0  0  0  0  0
    5.4131   -1.8597   -5.7606 Si  0  0  0  0  0  4  0  0  0  0  0  0
    6.8499   -1.5754   -5.7808 H   0  0  0  0  0  0  0  0  0  0  0  0
    5.2431   -3.0784   -4.9207 H   0  0  0  0  0  0  0  0  0  0  0  0
    4.5909   -2.3148   -7.7660 Si  0  0  0  0  0  4  0  0  0  0  0  0
    4.9049   -3.7328   -8.0707 H   0  0  0  0  0  0  0  0  0  0  0  0
    3.1275   -2.2059   -7.7227 H   0  0  0  0  0  0  0  0  0  0  0  0
    1.5837    1.5599   -8.1494 Si  0  0  0  0  0  4  0  0  0  0  0  0
    1.1853    1.5107   -9.5523 H   0  0  0  0  0  0  0  0  0  0  0  0
    2.8116    0.7291   -7.9969 H   0  0  0  0  0  0  0  0  0  0  0  0
    5.3587   -0.9794   -9.3428 Si  0  0  0  0  0  4  0  0  0  0  0  0
    5.4971   -1.7767  -10.5940 H   0  0  0  0  0  0  0  0  0  0  0  0
    4.4036    0.1072   -9.6816 H   0  0  0  0  0  0  0  0  0  0  0  0
    2.1432    3.6474   -7.6216 Si  0  0  0  0  0  4  0  0  0  0  0  0
    2.8721    3.6263   -6.3368 H   0  0  0  0  0  0  0  0  0  0  0  0
    0.9918    4.5392   -7.5601 H   0  0  0  0  0  0  0  0  0  0  0  0
    3.5592    4.3660   -9.2229 Si  0  0  0  0  0  4  0  0  0  0  0  0
    3.9516    5.7445   -9.0079 H   0  0  0  0  0  0  0  0  0  0  0  0
    4.7224    3.4530   -9.1772 H   0  0  0  0  0  0  0  0  0  0  0  0
    2.8994    4.1399  -10.5179 H   0  0  0  0  0  0  0  0  0  0  0  0
    7.3307   -0.1016   -8.8619 Si  0  0  0  0  0  4  0  0  0  0  0  0
    7.9550   -0.6924   -7.6829 H   0  0  0  0  0  0  0  0  0  0  0  0
    7.1801    1.3576   -8.6456 H   0  0  0  0  0  0  0  0  0  0  0  0
    8.2650   -0.2483  -10.0066 H   0  0  0  0  0  0  0  0  0  0  0  0
  1  2  1  0
  1  5  1  0
  2  3  1  0
  2  4  1  0
  2  8  1  0
  5  6  1  0
  5  7  1  0
  5 11  1  0
  8  9  1  0
  8 10  1  0
  8 17  1  0
 11 12  1  0
 11 13  1  0
 11 14  1  0
 14 15  1  0
 14 16  1  0
 14 23  1  0
 17 18  1  0
 17 19  1  0
 17 20  1  0
 20 21  1  0
 20 22  1  0
 20 26  1  0
 23 24  1  0
 23 25  1  0
 23 29  1  0
 26 27  1  0
 26 28  1  0
 26 36  1  0
 29 30  1  0
 29 31  1  0
 29 32  1  0
 32 33  1  0
 32 34  1  0
 32 35  1  0
 36 37  1  0
 36 38  1  0
 36 39  1  0
M  CHG  1   1   1
M  RAD  1   1   2
M  END
$$$$

     RDKit          3D

 39 38  0  0  0  0  0  0  0  0999 V2000
    1.5430   -0.0331   -2.5237 S   0  0  0  0  0  2  0  0  0  0  0  0
    3.3138   -1.0446   -3.1089 Si  0  0  0  0  0  4  0  0  0  0  0  0
    4.4628   -0.1058   -3.1124 H   0  0  0  0  0  0  0  0  0  0  0  0
    3.6195   -2.0695   -2.0923 H   0  0  0  0  0  0  0  0  0  0  0  0
    0.0777    0.0284   -4.0819 Si  0  0  0  0  0  4  0  0  0  0  0  0
   -0.3589   -1.3286   -4.4727 H   0  0  0  0  0  0  0  0  0  0  0  0
   -1.1075    0.7268   -3.5427 H   0  0  0  0  0  0  0  0  0  0  0  0
    3.1300   -2.0511   -5.0720 Si  0  0  0  0  0  4  0  0  0  0  0  0
    1.6977   -2.0234   -5.4835 H   0  0  0  0  0  0  0  0  0  0  0  0
    3.5128   -3.4658   -5.0189 H   0  0  0  0  0  0  0  0  0  0  0  0
    0.7849    1.1671   -5.8514 Si  0  0  0  0  0  4  0  0  0  0  0  0
    1.3885    0.2846   -6.8688 H   0  0  0  0  0  0  0  0  0  0  0  0
   -0.4007    1.7809   -6.4980 H   0  0  0  0  0  0  0  0  0  0  0  0
    2.1692    2.8120   -5.2997 Si  0  0  0  0  0  4  0  0  0  0  0  0
    1.4592    4.0317   -4.9033 H   0  0  0  0  0  0  0  0  0  0  0  0
    2.9836    2.3947   -4.1330 H   0  0  0  0  0  0  0  0  0  0  0  0
    4.4072   -1.0100   -6.5481 Si  0  0  0  0  0  4  0  0  0  0  0  0
    5.0479    0.1969   -5.9687 H   0  0  0  0  0  0  0  0  0  0  0  0
    3.5717   -0.6613   -7.7141 H   0  0  0  0  0  0  0  0  0  0  0  0
    6.0597   -2.3169   -7.2957 Si  0  0  0  0  0  4  0  0  0  0  0  0
    6.8049   -1.5278   -8.3052 H   0  0  0  0  0  0  0  0  0  0  0  0
    6.9678   -2.6041   -6.2038 H   0  0  0  0  0  0  0  0  0  0  0  0
    3.4766    3.2986   -7.0238 Si  0  0  0  0  0  4  0  0  0  0  0  0
    3.7203    4.7366   -7.1597 H   0  0  0  0  0  0  0  0  0  0  0  0
    4.7667    2.6142   -6.8223 H   0  0  0  0  0  0  0  0  0  0  0  0
    5.2812   -4.1326   -8.3015 Si  0  0  0  0  0  4  0  0  0  0  0  0
    5.5728   -5.2907   -7.4512 H   0  0  0  0  0  0  0  0  0  0  0  0
    5.9612   -4.3573   -9.5902 H   0  0  0  0  0  0  0  0  0  0  0  0
    2.6290    2.5588   -8.9508 Si  0  0  0  0  0  4  0  0  0  0  0  0
    3.5237    3.0109  -10.0285 H   0  0  0  0  0  0  0  0  0  0  0  0
    2.5783    1.1043   -9.0030 H   0  0  0  0  0  0  0  0  0  0  0  0
    0.5690    3.3371   -9.2911 Si  0  0  0  0  0  4  0  0  0  0  0  0
    0.6737    4.5838  -10.0462 H   0  0  0  0  0  0  0  0  0  0  0  0
   -0.2056    2.3260  -10.0545 H   0  0  0  0  0  0  0  0  0  0  0  0
   -0.1210    3.6023   -8.0377 H   0  0  0  0  0  0  0  0  0  0  0  0
    3.0928   -4.0011   -8.6983 Si  0  0  0  0  0  4  0  0  0  0  0  0
    2.8560   -3.6321  -10.0898 H   0  0  0  0  0  0  0  0  0  0  0  0
    2.4758   -5.2735   -8.3243 H   0  0  0  0  0  0  0  0  0  0  0  0
    2.5533   -2.9148   -7.8558 H   0  0  0  0  0  0  0  0  0  0  0  0
  1  2  1  0
  1  5  1  0
  2  3  1  0
  2  4  1  0
  2  8  1  0
  5  6  1  0
  5  7  1  0
  5 11  1  0
  8  9  1  0
  8 10  1  0
  8 17  1  0
 11 12  1  0
 11 13  1  0
 11 14  1  0
 14 15  1  0
 14 16  1  0
 14 23  1  0
 17 18  1  0
 17 19  1  0
 17 20  1  0
 20 21  1  0
 20 22  1  0
 20 26  1  0
 23 24  1  0
 23 25  1  0
 23 29  1  0
 26 27  1  0
 26 28  1  0
 26 36  1  0
 29 30  1  0
 29 31  1  0
 29 32  1  0
 32 33  1  0
 32 34  1  0
 32 35  1  0
 36 37  1  0
 36 38  1  0
 36 39  1  0
M  CHG  1   1   1
M  RAD  1   1   2
M  END
$$$$

     RDKit          3D

 39 38  0  0  0  0  0  0  0  0999 V2000
    1.5430   -0.0331   -2.5237 S   0  0  0  0  0  2  0  0  0  0  0  0
    2.1247    1.8509   -3.3066 Si  0  0  0  0  0  4  0  0  0  0  0  0
    1.1408    2.3118   -4.3172 H   0  0  0  0  0  0  0  0  0  0  0  0
    2.0876    2.8393   -2.2116 H   0  0  0  0  0  0  0  0  0  0  0  0
    2.9413   -1.5846   -2.9892 Si  0  0  0  0  0  4  0  0  0  0  0  0
    4.2711   -1.3125   -2.4043 H   0  0  0  0  0  0  0  0  0  0  0  0
    2.4404   -2.8281   -2.3679 H   0  0  0  0  0  0  0  0  0  0  0  0
    4.1668    1.8426   -4.1616 Si  0  0  0  0  0  4  0  0  0  0  0  0
    4.8281    0.5598   -3.7891 H   0  0  0  0  0  0  0  0  0  0  0  0
    5.0109    2.9110   -3.6169 H   0  0  0  0  0  0  0  0  0  0  0  0
    3.1011   -1.9392   -5.1748 Si  0  0  0  0  0  4  0  0  0  0  0  0
    4.2109   -1.1750   -5.7768 H   0  0  0  0  0  0  0  0  0  0  0  0
    3.4360   -3.3700   -5.3778 H   0  0  0  0  0  0  0  0  0  0  0  0
    1.1924   -1.5445   -6.2366 Si  0  0  0  0  0  4  0  0  0  0  0  0
    0.2842   -2.6946   -6.2013 H   0  0  0  0  0  0  0  0  0  0  0  0
    0.4862   -0.4231   -5.5718 H   0  0  0  0  0  0  0  0  0  0  0  0
    4.0389    2.0690   -6.3584 Si  0  0  0  0  0  4  0  0  0  0  0  0
    2.6318    2.0817   -6.8303 H   0  0  0  0  0  0  0  0  0  0  0  0
    4.7987    0.9661   -6.9792 H   0  0  0  0  0  0  0  0  0  0  0  0
    4.9675    3.9780   -7.0593 Si  0  0  0  0  0  4  0  0  0  0  0  0
    4.8631    3.9861   -8.5379 H   0  0  0  0  0  0  0  0  0  0  0  0
    4.1923    5.0945   -6.5573 H   0  0  0  0  0  0  0  0  0  0  0  0
    1.6060   -1.0511   -8.3590 Si  0  0  0  0  0  4  0  0  0  0  0  0
    0.6198   -1.6282   -9.2755 H   0  0  0  0  0  0  0  0  0  0  0  0
    1.5819    0.4165   -8.4965 H   0  0  0  0  0  0  0  0  0  0  0  0
    7.1189    4.0866   -6.5360 Si  0  0  0  0  0  4  0  0  0  0  0  0
    7.2879    5.1006   -5.4908 H   0  0  0  0  0  0  0  0  0  0  0  0
    7.9247    4.5169   -7.6933 H   0  0  0  0  0  0  0  0  0  0  0  0
    3.6285   -1.7426   -8.9993 Si  0  0  0  0  0  4  0  0  0  0  0  0
    3.7613   -1.4474  -10.4351 H   0  0  0  0  0  0  0  0  0  0  0  0
    4.6940   -1.0335   -8.3045 H   0  0  0  0  0  0  0  0  0  0  0  0
    3.8990   -3.9250   -8.6399 Si  0  0  0  0  0  4  0  0  0  0  0  0
    3.4919   -4.6381   -9.8487 H   0  0  0  0  0  0  0  0  0  0  0  0
    5.3281   -4.1871   -8.3336 H   0  0  0  0  0  0  0  0  0  0  0  0
    3.0908   -4.3917   -7.5233 H   0  0  0  0  0  0  0  0  0  0  0  0
    7.9154    2.1253   -5.8413 Si  0  0  0  0  0  4  0  0  0  0  0  0
    8.6368    1.4643   -6.9236 H   0  0  0  0  0  0  0  0  0  0  0  0
    8.7370    2.3525   -4.6526 H   0  0  0  0  0  0  0  0  0  0  0  0
    6.7592    1.2735   -5.4969 H   0  0  0  0  0  0  0  0  0  0  0  0
  1  2  1  0
  1  5  1  0
  2  3  1  0
  2  4  1  0
  2  8  1  0
  5  6  1  0
  5  7  1  0
  5 11  1  0
  8  9  1  0
  8 10  1  0
  8 17  1  0
 11 12  1  0
 11 13  1  0
 11 14  1  0
 14 15  1  0
 14 16  1  0
 14 23  1  0
 17 18  1  0
 17 19  1  0
 17 20  1  0
 20 21  1  0
 20 22  1  0
 20 26  1  0
 23 24  1  0
 23 25  1  0
 23 29  1  0
 26 27  1  0
 26 28  1  0
 26 36  1  0
 29 30  1  0
 29 31  1  0
 29 32  1  0
 32 33  1  0
 32 34  1  0
 32 35  1  0
 36 37  1  0
 36 38  1  0
 36 39  1  0
M  CHG  1   1   1
M  RAD  1   1   2
M  END
$$$$

     RDKit          3D

 39 38  0  0  0  0  0  0  0  0999 V2000
    1.5430   -0.0331   -2.5237 S   0  0  0  0  0  2  0  0  0  0  0  0
    2.4516    1.7719   -3.1698 Si  0  0  0  0  0  4  0  0  0  0  0  0
    1.5561    2.4879   -4.1116 H   0  0  0  0  0  0  0  0  0  0  0  0
    2.6123    2.6550   -1.9986 H   0  0  0  0  0  0  0  0  0  0  0  0
    2.6247   -1.7694   -3.1518 Si  0  0  0  0  0  4  0  0  0  0  0  0
    3.9897   -1.7949   -2.5854 H   0  0  0  0  0  0  0  0  0  0  0  0
    1.9114   -2.9481   -2.6178 H   0  0  0  0  0  0  0  0  0  0  0  0
    4.4454    1.4623   -4.0809 Si  0  0  0  0  0  4  0  0  0  0  0  0
    4.8637    0.0536   -3.8315 H   0  0  0  0  0  0  0  0  0  0  0  0
    5.4794    2.3089   -3.4771 H   0  0  0  0  0  0  0  0  0  0  0  0
    2.6868   -1.9625   -5.3624 Si  0  0  0  0  0  4  0  0  0  0  0  0
    3.9103   -1.3662   -5.9330 H   0  0  0  0  0  0  0  0  0  0  0  0
    2.7492   -3.4083   -5.6887 H   0  0  0  0  0  0  0  0  0  0  0  0
    0.8695   -1.1381   -6.3340 Si  0  0  0  0  0  4  0  0  0  0  0  0
   -0.2347   -2.1017   -6.3647 H   0  0  0  0  0  0  0  0  0  0  0  0
    0.3913    0.0337   -5.5616 H   0  0  0  0  0  0  0  0  0  0  0  0
    4.3318    1.8918   -6.2481 Si  0  0  0  0  0  4  0  0  0  0  0  0
    2.9450    2.2009   -6.6769 H   0  0  0  0  0  0  0  0  0  0  0  0
    4.8667    0.7247   -6.9767 H   0  0  0  0  0  0  0  0  0  0  0  0
    5.5870    3.6509   -6.8204 Si  0  0  0  0  0  4  0  0  0  0  0  0
    5.4659    3.8020   -8.2900 H   0  0  0  0  0  0  0  0  0  0  0  0
    5.0380    4.8441   -6.2087 H   0  0  0  0  0  0  0  0  0  0  0  0
    1.3383   -0.5522   -8.4211 Si  0  0  0  0  0  4  0  0  0  0  0  0
    0.2503   -0.8604   -9.3521 H   0  0  0  0  0  0  0  0  0  0  0  0
    1.5835    0.9013   -8.4401 H   0  0  0  0  0  0  0  0  0  0  0  0
    7.7285    3.3203   -6.3521 Si  0  0  0  0  0  4  0  0  0  0  0  0
    8.0957    4.1950   -5.2343 H   0  0  0  0  0  0  0  0  0  0  0  0
    8.5841    3.6917   -7.4939 H   0  0  0  0  0  0  0  0  0  0  0  0
    3.1897   -1.5454   -9.1725 Si  0  0  0  0  0  4  0  0  0  0  0  0
    3.3553   -1.1601  -10.5833 H   0  0  0  0  0  0  0  0  0  0  0  0
    4.3770   -1.1037   -8.4541 H   0  0  0  0  0  0  0  0  0  0  0  0
    3.0578   -3.7629   -8.9967 Si  0  0  0  0  0  4  0  0  0  0  0  0
    2.5099   -4.2856  -10.2465 H   0  0  0  0  0  0  0  0  0  0  0  0
    4.4181   -4.3064   -8.7535 H   0  0  0  0  0  0  0  0  0  0  0  0
    2.1926   -4.1660   -7.8983 H   0  0  0  0  0  0  0  0  0  0  0  0
    8.1588    1.1952   -5.8396 Si  0  0  0  0  0  4  0  0  0  0  0  0
    8.7311    0.5068   -6.9915 H   0  0  0  0  0  0  0  0  0  0  0  0
    9.0242    1.1680   -4.6607 H   0  0  0  0  0  0  0  0  0  0  0  0
    6.8701    0.5432   -5.5314 H   0  0  0  0  0  0  0  0  0  0  0  0
  1  2  1  0
  1  5  1  0
  2  3  1  0
  2  4  1  0
  2  8  1  0
  5  6  1  0
  5  7  1  0
  5 11  1  0
  8  9  1  0
  8 10  1  0
  8 17  1  0
 11 12  1  0
 11 13  1  0
 11 14  1  0
 14 15  1  0
 14 16  1  0
 14 23  1  0
 17 18  1  0
 17 19  1  0
 17 20  1  0
 20 21  1  0
 20 22  1  0
 20 26  1  0
 23 24  1  0
 23 25  1  0
 23 29  1  0
 26 27  1  0
 26 28  1  0
 26 36  1  0
 29 30  1  0
 29 31  1  0
 29 32  1  0
 32 33  1  0
 32 34  1  0
 32 35  1  0
 36 37  1  0
 36 38  1  0
 36 39  1  0
M  CHG  1   1   1
M  RAD  1   1   2
M  END
$$$$

     RDKit          3D

 39 38  0  0  0  0  0  0  0  0999 V2000
    1.5430   -0.0331   -2.5237 S   0  0  0  0  0  2  0  0  0  0  0  0
    2.3252    1.8113   -3.2217 Si  0  0  0  0  0  4  0  0  0  0  0  0
    1.3893    2.4302   -4.1927 H   0  0  0  0  0  0  0  0  0  0  0  0
    2.4106    2.7407   -2.0787 H   0  0  0  0  0  0  0  0  0  0  0  0
    2.7530   -1.7057   -3.0872 Si  0  0  0  0  0  4  0  0  0  0  0  0
    4.1108   -1.6143   -2.5105 H   0  0  0  0  0  0  0  0  0  0  0  0
    2.1215   -2.9153   -2.5203 H   0  0  0  0  0  0  0  0  0  0  0  0
    4.3446    1.6179   -4.1080 Si  0  0  0  0  0  4  0  0  0  0  0  0
    4.8611    0.2519   -3.8098 H   0  0  0  0  0  0  0  0  0  0  0  0
    5.3091    2.5561   -3.5247 H   0  0  0  0  0  0  0  0  0  0  0  0
    2.8498   -1.9644   -5.2898 Si  0  0  0  0  0  4  0  0  0  0  0  0
    4.0324   -1.2996   -5.8708 H   0  0  0  0  0  0  0  0  0  0  0  0
    3.0194   -3.4115   -5.5685 H   0  0  0  0  0  0  0  0  0  0  0  0
    0.9871   -1.3051   -6.3007 Si  0  0  0  0  0  4  0  0  0  0  0  0
   -0.0445   -2.3465   -6.3080 H   0  0  0  0  0  0  0  0  0  0  0  0
    0.4183   -0.1469   -5.5703 H   0  0  0  0  0  0  0  0  0  0  0  0
    4.2209    1.9686   -6.2887 Si  0  0  0  0  0  4  0  0  0  0  0  0
    2.8195    2.1627   -6.7373 H   0  0  0  0  0  0  0  0  0  0  0  0
    4.8454    0.8206   -6.9751 H   0  0  0  0  0  0  0  0  0  0  0  0
    5.3514    3.7948   -6.9090 Si  0  0  0  0  0  4  0  0  0  0  0  0
    5.2336    3.8897   -8.3836 H   0  0  0  0  0  0  0  0  0  0  0  0
    4.7119    4.9641   -6.3404 H   0  0  0  0  0  0  0  0  0  0  0  0
    1.4321   -0.7538   -8.4024 Si  0  0  0  0  0  4  0  0  0  0  0  0
    0.3781   -1.1695   -9.3306 H   0  0  0  0  0  0  0  0  0  0  0  0
    1.5721    0.7124   -8.4669 H   0  0  0  0  0  0  0  0  0  0  0  0
    7.5065    3.6352   -6.4149 Si  0  0  0  0  0  4  0  0  0  0  0  0
    7.7991    4.5694   -5.3237 H   0  0  0  0  0  0  0  0  0  0  0  0
    8.3439    4.0309   -7.5621 H   0  0  0  0  0  0  0  0  0  0  0  0
    3.3574   -1.6339   -9.1078 Si  0  0  0  0  0  4  0  0  0  0  0  0
    3.5081   -1.2828  -10.5292 H   0  0  0  0  0  0  0  0  0  0  0  0
    4.5028   -1.0847   -8.3957 H   0  0  0  0  0  0  0  0  0  0  0  0
    3.3841   -3.8483   -8.8609 Si  0  0  0  0  0  4  0  0  0  0  0  0
    2.8871   -4.4490  -10.0969 H   0  0  0  0  0  0  0  0  0  0  0  0
    4.7776   -4.2839   -8.5904 H   0  0  0  0  0  0  0  0  0  0  0  0
    2.5398   -4.2778   -7.7562 H   0  0  0  0  0  0  0  0  0  0  0  0
    8.0841    1.5643   -5.8305 Si  0  0  0  0  0  4  0  0  0  0  0  0
    8.7155    0.8826   -6.9553 H   0  0  0  0  0  0  0  0  0  0  0  0
    8.9380    1.6374   -4.6451 H   0  0  0  0  0  0  0  0  0  0  0  0
    6.8429    0.8308   -5.5105 H   0  0  0  0  0  0  0  0  0  0  0  0
  1  2  1  0
  1  5  1  0
  2  3  1  0
  2  4  1  0
  2  8  1  0
  5  6  1  0
  5  7  1  0
  5 11  1  0
  8  9  1  0
  8 10  1  0
  8 17  1  0
 11 12  1  0
 11 13  1  0
 11 14  1  0
 14 15  1  0
 14 16  1  0
 14 23  1  0
 17 18  1  0
 17 19  1  0
 17 20  1  0
 20 21  1  0
 20 22  1  0
 20 26  1  0
 23 24  1  0
 23 25  1  0
 23 29  1  0
 26 27  1  0
 26 28  1  0
 26 36  1  0
 29 30  1  0
 29 31  1  0
 29 32  1  0
 32 33  1  0
 32 34  1  0
 32 35  1  0
 36 37  1  0
 36 38  1  0
 36 39  1  0
M  CHG  1   1   1
M  RAD  1   1   2
M  END
$$$$
