
     RDKit          3D

 39 38  0  0  0  0  0  0  0  0999 V2000
    0.3843   -0.3920    2.6563 S   0  0  0  0  0  2  0  0  0  0  0  0
    1.8686   -1.4192    3.7262 Si  0  0  0  0  0  4  0  0  0  0  0  0
    1.9225   -0.8822    5.1153 H   0  0  0  0  0  0  0  0  0  0  0  0
    3.1965   -1.0964    3.1354 H   0  0  0  0  0  0  0  0  0  0  0  0
   -1.5831   -0.9758    2.9676 Si  0  0  0  0  0  4  0  0  0  0  0  0
   -2.4499    0.2267    3.1306 H   0  0  0  0  0  0  0  0  0  0  0  0
   -2.1130   -1.6779    1.7754 H   0  0  0  0  0  0  0  0  0  0  0  0
    1.6430   -3.6206    3.6961 Si  0  0  0  0  0  4  0  0  0  0  0  0
    2.7806   -4.2819    2.9943 H   0  0  0  0  0  0  0  0  0  0  0  0
    0.4299   -4.0555    2.9850 H   0  0  0  0  0  0  0  0  0  0  0  0
   -1.9322   -2.2865    4.7175 Si  0  0  0  0  0  4  0  0  0  0  0  0
   -3.4013   -2.5524    4.7628 H   0  0  0  0  0  0  0  0  0  0  0  0
   -1.2911   -3.5856    4.5903 H   0  0  0  0  0  0  0  0  0  0  0  0
   -1.4306   -1.2735    6.6345 Si  0  0  0  0  0  4  0  0  0  0  0  0
    0.0181   -1.3262    6.9132 H   0  0  0  0  0  0  0  0  0  0  0  0
   -1.8526    0.1397    6.5107 H   0  0  0  0  0  0  0  0  0  0  0  0
    1.6807   -4.3524    5.8028 Si  0  0  0  0  0  4  0  0  0  0  0  0
    0.3554   -4.1774    6.3677 H   0  0  0  0  0  0  0  0  0  0  0  0
    2.6038   -3.4776    6.5585 H   0  0  0  0  0  0  0  0  0  0  0  0
    2.4357   -6.4274    5.9443 Si  0  0  0  0  0  4  0  0  0  0  0  0
    3.8515   -6.4335    5.5477 H   0  0  0  0  0  0  0  0  0  0  0  0
    2.3204   -6.8776    7.3245 H   0  0  0  0  0  0  0  0  0  0  0  0
   -2.5805   -2.1483    8.3399 Si  0  0  0  0  0  4  0  0  0  0  0  0
   -1.7316   -3.0605    9.0912 H   0  0  0  0  0  0  0  0  0  0  0  0
   -3.0525   -1.1052    9.2674 H   0  0  0  0  0  0  0  0  0  0  0  0
    1.3303   -7.8135    4.6142 Si  0  0  0  0  0  4  0  0  0  0  0  0
    1.6813   -7.6525    3.2167 H   0  0  0  0  0  0  0  0  0  0  0  0
    1.6832   -9.1980    5.0166 H   0  0  0  0  0  0  0  0  0  0  0  0
   -4.3919   -3.2398    7.6028 Si  0  0  0  0  0  4  0  0  0  0  0  0
   -5.2175   -2.3685    6.7797 H   0  0  0  0  0  0  0  0  0  0  0  0
   -5.1415   -3.6784    8.7972 H   0  0  0  0  0  0  0  0  0  0  0  0
   -3.8222   -5.0729    6.4695 Si  0  0  0  0  0  4  0  0  0  0  0  0
   -4.4970   -5.1123    5.1548 H   0  0  0  0  0  0  0  0  0  0  0  0
   -2.3764   -5.0444    6.2660 H   0  0  0  0  0  0  0  0  0  0  0  0
   -4.1948   -6.3008    7.1926 H   0  0  0  0  0  0  0  0  0  0  0  0
   -0.8734   -7.6054    4.8245 Si  0  0  0  0  0  4  0  0  0  0  0  0
   -1.3058   -7.6827    6.2321 H   0  0  0  0  0  0  0  0  0  0  0  0
   -1.3537   -6.3261    4.2924 H   0  0  0  0  0  0  0  0  0  0  0  0
   -1.5195   -8.6825    4.0798 H   0  0  0  0  0  0  0  0  0  0  0  0
  1  2  1  0
  1  5  1  0
  2  3  1  0
  2  4  1  0
  2  8  1  0
  5  6  1  0
  5  7  1  0
  5 11  1  0
  8  9  1  0
  8 10  1  0
  8 17  1  0
 11 12  1  0
 11 13  1  0
 11 14  1  0
 14 15  1  0
 14 16  1  0
 14 23  1  0
 17 18  1  0
 17 19  1  0
 17 20  1  0
 20 21  1  0
 20 22  1  0
 20 26  1  0
 23 24  1  0
 23 25  1  0
 23 29  1  0
 26 27  1  0
 26 28  1  0
 26 36  1  0
 29 30  1  0
 29 31  1  0
 29 32  1  0
 32 33  1  0
 32 34  1  0
 32 35  1  0
 36 37  1  0
 36 38  1  0
 36 39  1  0
M  CHG  1   1   1
M  RAD  1   1   2
M  END
$$$$

     RDKit          3D

 39 38  0  0  0  0  0  0  0  0999 V2000
    0.3843   -0.3920    2.6563 S   0  0  0  0  0  2  0  0  0  0  0  0
    1.0033    0.9807    4.1482 Si  0  0  0  0  0  4  0  0  0  0  0  0
    2.0955    0.4032    4.9113 H   0  0  0  0  0  0  0  0  0  0  0  0
    1.5258    2.1950    3.4670 H   0  0  0  0  0  0  0  0  0  0  0  0
   -0.8405   -1.9527    3.4034 Si  0  0  0  0  0  4  0  0  0  0  0  0
   -1.7364   -2.3964    2.2987 H   0  0  0  0  0  0  0  0  0  0  0  0
   -1.7051   -1.4978    4.4827 H   0  0  0  0  0  0  0  0  0  0  0  0
   -0.6262    1.5431    5.5411 Si  0  0  0  0  0  4  0  0  0  0  0  0
   -1.5720    2.4238    4.8133 H   0  0  0  0  0  0  0  0  0  0  0  0
   -1.2773    0.3284    6.0231 H   0  0  0  0  0  0  0  0  0  0  0  0
    0.3345   -3.7300    4.0413 Si  0  0  0  0  0  4  0  0  0  0  0  0
    1.2244   -4.1669    2.9697 H   0  0  0  0  0  0  0  0  0  0  0  0
   -0.6354   -4.8373    4.2645 H   0  0  0  0  0  0  0  0  0  0  0  0
    1.4000   -3.3864    5.9587 Si  0  0  0  0  0  4  0  0  0  0  0  0
    0.6306   -2.3982    6.7374 H   0  0  0  0  0  0  0  0  0  0  0  0
    1.4274   -4.6460    6.7242 H   0  0  0  0  0  0  0  0  0  0  0  0
    0.2330    2.7489    7.2092 Si  0  0  0  0  0  4  0  0  0  0  0  0
   -0.8408    3.1621    8.1051 H   0  0  0  0  0  0  0  0  0  0  0  0
    0.8469    3.9558    6.6184 H   0  0  0  0  0  0  0  0  0  0  0  0
    1.7896    1.6534    8.3265 Si  0  0  0  0  0  4  0  0  0  0  0  0
    2.5477    0.7131    7.5025 H   0  0  0  0  0  0  0  0  0  0  0  0
    2.7732    2.6474    8.8398 H   0  0  0  0  0  0  0  0  0  0  0  0
    3.4855   -2.7084    5.6639 Si  0  0  0  0  0  4  0  0  0  0  0  0
    3.9245   -3.0644    4.3119 H   0  0  0  0  0  0  0  0  0  0  0  0
    3.6203   -1.2364    5.7767 H   0  0  0  0  0  0  0  0  0  0  0  0
    0.9640    0.5946   10.1115 Si  0  0  0  0  0  4  0  0  0  0  0  0
    0.3636    1.5521   11.0437 H   0  0  0  0  0  0  0  0  0  0  0  0
    2.1152   -0.0185   10.8180 H   0  0  0  0  0  0  0  0  0  0  0  0
    4.8672   -3.5802    7.2028 Si  0  0  0  0  0  4  0  0  0  0  0  0
    6.1399   -2.8178    7.0948 H   0  0  0  0  0  0  0  0  0  0  0  0
    5.1683   -4.9725    6.9323 H   0  0  0  0  0  0  0  0  0  0  0  0
    4.0428   -3.2310    9.2290 Si  0  0  0  0  0  4  0  0  0  0  0  0
    2.8207   -2.3996    9.1706 H   0  0  0  0  0  0  0  0  0  0  0  0
    3.7561   -4.5447    9.8372 H   0  0  0  0  0  0  0  0  0  0  0  0
    4.9973   -2.4990   10.0954 H   0  0  0  0  0  0  0  0  0  0  0  0
   -0.4489   -1.0071    9.5425 Si  0  0  0  0  0  4  0  0  0  0  0  0
   -0.9041   -0.7837    8.1736 H   0  0  0  0  0  0  0  0  0  0  0  0
    0.1854   -2.3279    9.6469 H   0  0  0  0  0  0  0  0  0  0  0  0
   -1.6138   -1.0322   10.4615 H   0  0  0  0  0  0  0  0  0  0  0  0
  1  2  1  0
  1  5  1  0
  2  3  1  0
  2  4  1  0
  2  8  1  0
  5  6  1  0
  5  7  1  0
  5 11  1  0
  8  9  1  0
  8 10  1  0
  8 17  1  0
 11 12  1  0
 11 13  1  0
 11 14  1  0
 14 15  1  0
 14 16  1  0
 14 23  1  0
 17 18  1  0
 17 19  1  0
 17 20  1  0
 20 21  1  0
 20 22  1  0
 20 26  1  0
 23 24  1  0
 23 25  1  0
 23 29  1  0
 26 27  1  0
 26 28  1  0
 26 36  1  0
 29 30  1  0
 29 31  1  0
 29 32  1  0
 32 33  1  0
 32 34  1  0
 32 35  1  0
 36 37  1  0
 36 38  1  0
 36 39  1  0
M  CHG  1   1   1
M  RAD  1   1   2
M  END
$$$$

     RDKit          3D

 39 38  0  0  0  0  0  0  0  0999 V2000
    0.3843   -0.3920    2.6563 S   0  0  0  0  0  2  0  0  0  0  0  0
   -0.5365   -1.5196    4.2090 Si  0  0  0  0  0  4  0  0  0  0  0  0
   -1.9815   -1.6161    3.9212 H   0  0  0  0  0  0  0  0  0  0  0  0
   -0.3703   -0.9325    5.5280 H   0  0  0  0  0  0  0  0  0  0  0  0
    0.7469    1.6495    3.2709 Si  0  0  0  0  0  4  0  0  0  0  0  0
   -0.0083    1.9918    4.4665 H   0  0  0  0  0  0  0  0  0  0  0  0
    0.2020    2.4935    2.1680 H   0  0  0  0  0  0  0  0  0  0  0  0
    0.3051   -3.6060    4.1180 Si  0  0  0  0  0  4  0  0  0  0  0  0
   -0.3601   -4.4944    5.0507 H   0  0  0  0  0  0  0  0  0  0  0  0
    0.0808   -4.0819    2.7390 H   0  0  0  0  0  0  0  0  0  0  0  0
    2.9153    2.0518    3.4465 Si  0  0  0  0  0  4  0  0  0  0  0  0
    3.3082    3.2095    2.5919 H   0  0  0  0  0  0  0  0  0  0  0  0
    3.6365    0.8858    2.8580 H   0  0  0  0  0  0  0  0  0  0  0  0
    3.5829    2.4018    5.5106 Si  0  0  0  0  0  4  0  0  0  0  0  0
    4.2573    3.7274    5.6204 H   0  0  0  0  0  0  0  0  0  0  0  0
    4.6371    1.4096    5.8690 H   0  0  0  0  0  0  0  0  0  0  0  0
    2.5054   -3.4928    4.4952 Si  0  0  0  0  0  4  0  0  0  0  0  0
    3.0058   -4.7632    5.0306 H   0  0  0  0  0  0  0  0  0  0  0  0
    3.1675   -3.2943    3.1839 H   0  0  0  0  0  0  0  0  0  0  0  0
    2.9248   -1.7957    5.8726 Si  0  0  0  0  0  4  0  0  0  0  0  0
    1.6763   -1.0594    6.1793 H   0  0  0  0  0  0  0  0  0  0  0  0
    3.9074   -0.8907    5.2191 H   0  0  0  0  0  0  0  0  0  0  0  0
    1.9747    2.2474    7.0148 Si  0  0  0  0  0  4  0  0  0  0  0  0
    2.4278    1.4738    8.2050 H   0  0  0  0  0  0  0  0  0  0  0  0
    0.7714    1.5909    6.5252 H   0  0  0  0  0  0  0  0  0  0  0  0
    3.8053   -2.4675    7.7912 Si  0  0  0  0  0  4  0  0  0  0  0  0
    5.2723   -2.5739    7.7062 H   0  0  0  0  0  0  0  0  0  0  0  0
    3.5083   -1.4374    8.8120 H   0  0  0  0  0  0  0  0  0  0  0  0
    1.5170    4.3169    7.7899 Si  0  0  0  0  0  4  0  0  0  0  0  0
    0.8709    4.2591    9.0915 H   0  0  0  0  0  0  0  0  0  0  0  0
    0.6697    4.9925    6.7884 H   0  0  0  0  0  0  0  0  0  0  0  0
    3.5003    5.3757    7.9365 Si  0  0  0  0  0  4  0  0  0  0  0  0
    3.3965    6.6081    8.6899 H   0  0  0  0  0  0  0  0  0  0  0  0
    4.4661    4.4750    8.6009 H   0  0  0  0  0  0  0  0  0  0  0  0
    4.0126    5.6497    6.5970 H   0  0  0  0  0  0  0  0  0  0  0  0
    2.9744   -4.4052    8.4780 Si  0  0  0  0  0  4  0  0  0  0  0  0
    1.5134   -4.3993    8.4432 H   0  0  0  0  0  0  0  0  0  0  0  0
    3.3613   -4.5748    9.9051 H   0  0  0  0  0  0  0  0  0  0  0  0
    3.5599   -5.5234    7.7290 H   0  0  0  0  0  0  0  0  0  0  0  0
  1  2  1  0
  1  5  1  0
  2  3  1  0
  2  4  1  0
  2  8  1  0
  5  6  1  0
  5  7  1  0
  5 11  1  0
  8  9  1  0
  8 10  1  0
  8 17  1  0
 11 12  1  0
 11 13  1  0
 11 14  1  0
 14 15  1  0
 14 16  1  0
 14 23  1  0
 17 18  1  0
 17 19  1  0
 17 20  1  0
 20 21  1  0
 20 22  1  0
 20 26  1  0
 23 24  1  0
 23 25  1  0
 23 29  1  0
 26 27  1  0
 26 28  1  0
 26 36  1  0
 29 30  1  0
 29 31  1  0
 29 32  1  0
 32 33  1  0
 32 34  1  0
 32 35  1  0
 36 37  1  0
 36 38  1  0
 36 39  1  0
M  CHG  1   1   1
M  RAD  1   1   2
M  END
$$$$

     RDKit          3D

 39 38  0  0  0  0  0  0  0  0999 V2000
    0.3843   -0.3920    2.6563 S   0  0  0  0  0  2  0  0  0  0  0  0
    2.1378   -0.3772    3.8625 Si  0  0  0  0  0  4  0  0  0  0  0  0
    2.9699   -1.5386    3.4899 H   0  0  0  0  0  0  0  0  0  0  0  0
    1.8614   -0.4498    5.2874 H   0  0  0  0  0  0  0  0  0  0  0  0
   -1.3128   -1.1820    3.7391 Si  0  0  0  0  0  4  0  0  0  0  0  0
   -0.8998   -1.8872    4.9429 H   0  0  0  0  0  0  0  0  0  0  0  0
   -1.9144   -2.2036    2.8336 H   0  0  0  0  0  0  0  0  0  0  0  0
    3.3026    1.4769    3.3373 Si  0  0  0  0  0  4  0  0  0  0  0  0
    4.5874    1.5118    4.0080 H   0  0  0  0  0  0  0  0  0  0  0  0
    3.5104    1.4340    1.8767 H   0  0  0  0  0  0  0  0  0  0  0  0
   -2.8217    0.3934    4.1080 Si  0  0  0  0  0  4  0  0  0  0  0  0
   -4.1499   -0.0095    3.5616 H   0  0  0  0  0  0  0  0  0  0  0  0
   -2.4289    1.5873    3.3041 H   0  0  0  0  0  0  0  0  0  0  0  0
   -3.0321    0.9338    6.2276 Si  0  0  0  0  0  4  0  0  0  0  0  0
   -4.4448    0.7559    6.6710 H   0  0  0  0  0  0  0  0  0  0  0  0
   -2.7614    2.3903    6.4003 H   0  0  0  0  0  0  0  0  0  0  0  0
    2.0493    3.2588    3.8376 Si  0  0  0  0  0  4  0  0  0  0  0  0
    2.8929    4.4313    4.0916 H   0  0  0  0  0  0  0  0  0  0  0  0
    1.2336    3.5737    2.6406 H   0  0  0  0  0  0  0  0  0  0  0  0
    0.7589    2.7777    5.5859 Si  0  0  0  0  0  4  0  0  0  0  0  0
    0.9455    1.3650    5.9917 H   0  0  0  0  0  0  0  0  0  0  0  0
   -0.6583    3.0200    5.2059 H   0  0  0  0  0  0  0  0  0  0  0  0
   -1.6747   -0.1671    7.5759 Si  0  0  0  0  0  4  0  0  0  0  0  0
   -1.0583    0.7473    8.5779 H   0  0  0  0  0  0  0  0  0  0  0  0
   -0.5772   -0.8341    6.8907 H   0  0  0  0  0  0  0  0  0  0  0  0
    1.2098    4.0529    7.3404 Si  0  0  0  0  0  4  0  0  0  0  0  0
    0.4463    5.3124    7.3050 H   0  0  0  0  0  0  0  0  0  0  0  0
    0.7785    3.3236    8.5541 H   0  0  0  0  0  0  0  0  0  0  0  0
   -2.8954   -1.6336    8.7811 Si  0  0  0  0  0  4  0  0  0  0  0  0
   -2.2028   -2.0151   10.0016 H   0  0  0  0  0  0  0  0  0  0  0  0
   -3.1700   -2.8006    7.9207 H   0  0  0  0  0  0  0  0  0  0  0  0
   -4.8282   -0.5812    9.2632 Si  0  0  0  0  0  4  0  0  0  0  0  0
   -5.5876   -1.2891   10.2728 H   0  0  0  0  0  0  0  0  0  0  0  0
   -4.5142    0.7789    9.7500 H   0  0  0  0  0  0  0  0  0  0  0  0
   -5.6254   -0.4345    8.0487 H   0  0  0  0  0  0  0  0  0  0  0  0
    3.3703    4.5173    7.5235 Si  0  0  0  0  0  4  0  0  0  0  0  0
    4.1845    3.3082    7.4196 H   0  0  0  0  0  0  0  0  0  0  0  0
    3.5946    5.0602    8.8910 H   0  0  0  0  0  0  0  0  0  0  0  0
    3.7672    5.5581    6.5679 H   0  0  0  0  0  0  0  0  0  0  0  0
  1  2  1  0
  1  5  1  0
  2  3  1  0
  2  4  1  0
  2  8  1  0
  5  6  1  0
  5  7  1  0
  5 11  1  0
  8  9  1  0
  8 10  1  0
  8 17  1  0
 11 12  1  0
 11 13  1  0
 11 14  1  0
 14 15  1  0
 14 16  1  0
 14 23  1  0
 17 18  1  0
 17 19  1  0
 17 20  1  0
 20 21  1  0
 20 22  1  0
 20 26  1  0
 23 24  1  0
 23 25  1  0
 23 29  1  0
 26 27  1  0
 26 28  1  0
 26 36  1  0
 29 30  1  0
 29 31  1  0
 29 32  1  0
 32 33  1  0
 32 34  1  0
 32 35  1  0
 36 37  1  0
 36 38  1  0
 36 39  1  0
M  CHG  1   1   1
M  RAD  1   1   2
M  END
$$$$

     RDKit          3D

 39 38  0  0  0  0  0  0  0  0999 V2000
    0.3843   -0.3920    2.6563 S   0  0  0  0  0  2  0  0  0  0  0  0
    1.6895   -0.8072    4.2740 Si  0  0  0  0  0  4  0  0  0  0  0  0
    1.0223   -1.6856    5.2186 H   0  0  0  0  0  0  0  0  0  0  0  0
    2.8679   -1.5388    3.7375 H   0  0  0  0  0  0  0  0  0  0  0  0
   -1.0868    1.0646    3.1131 Si  0  0  0  0  0  4  0  0  0  0  0  0
   -1.4489    1.7585    1.8454 H   0  0  0  0  0  0  0  0  0  0  0  0
   -0.5792    2.0871    4.0166 H   0  0  0  0  0  0  0  0  0  0  0  0
    2.3591    1.0167    5.3402 Si  0  0  0  0  0  4  0  0  0  0  0  0
    3.3171    1.7367    4.4662 H   0  0  0  0  0  0  0  0  0  0  0  0
    1.1923    1.8354    5.6565 H   0  0  0  0  0  0  0  0  0  0  0  0
   -2.9552    0.1679    3.9204 Si  0  0  0  0  0  4  0  0  0  0  0  0
   -3.4468   -0.8791    3.0298 H   0  0  0  0  0  0  0  0  0  0  0  0
   -3.9878    1.2405    3.9240 H   0  0  0  0  0  0  0  0  0  0  0  0
   -2.7145   -0.5267    6.0154 Si  0  0  0  0  0  4  0  0  0  0  0  0
   -1.6792    0.3055    6.6559 H   0  0  0  0  0  0  0  0  0  0  0  0
   -3.9808   -0.3135    6.7395 H   0  0  0  0  0  0  0  0  0  0  0  0
    3.4778    0.4128    7.1728 Si  0  0  0  0  0  4  0  0  0  0  0  0
    3.9617    1.6074    7.8550 H   0  0  0  0  0  0  0  0  0  0  0  0
    4.6409   -0.3901    6.7425 H   0  0  0  0  0  0  0  0  0  0  0  0
    2.2550   -0.8134    8.5412 Si  0  0  0  0  0  4  0  0  0  0  0  0
    1.2687   -1.6469    7.8553 H   0  0  0  0  0  0  0  0  0  0  0  0
    3.1656   -1.7480    9.2597 H   0  0  0  0  0  0  0  0  0  0  0  0
   -2.1940   -2.6734    6.1458 Si  0  0  0  0  0  4  0  0  0  0  0  0
   -2.5677   -3.3397    4.8954 H   0  0  0  0  0  0  0  0  0  0  0  0
   -0.7379   -2.8902    6.3199 H   0  0  0  0  0  0  0  0  0  0  0  0
    1.2427    0.4179   10.1059 Si  0  0  0  0  0  4  0  0  0  0  0  0
    2.2329    1.1169   10.9288 H   0  0  0  0  0  0  0  0  0  0  0  0
    0.5361   -0.5266   11.0054 H   0  0  0  0  0  0  0  0  0  0  0  0
   -3.1850   -3.6628    7.8997 Si  0  0  0  0  0  4  0  0  0  0  0  0
   -2.5206   -4.9841    8.0587 H   0  0  0  0  0  0  0  0  0  0  0  0
   -4.5932   -3.9089    7.6571 H   0  0  0  0  0  0  0  0  0  0  0  0
   -2.7963   -2.4880    9.7370 Si  0  0  0  0  0  4  0  0  0  0  0  0
   -1.8737   -1.3641    9.4651 H   0  0  0  0  0  0  0  0  0  0  0  0
   -4.0909   -1.9940   10.2448 H   0  0  0  0  0  0  0  0  0  0  0  0
   -2.1485   -3.3065   10.7896 H   0  0  0  0  0  0  0  0  0  0  0  0
   -0.2406    1.8057    9.2344 Si  0  0  0  0  0  4  0  0  0  0  0  0
    0.0317    1.9688    7.8096 H   0  0  0  0  0  0  0  0  0  0  0  0
   -1.6068    1.3012    9.4257 H   0  0  0  0  0  0  0  0  0  0  0  0
   -0.1870    3.1256    9.9105 H   0  0  0  0  0  0  0  0  0  0  0  0
  1  2  1  0
  1  5  1  0
  2  3  1  0
  2  4  1  0
  2  8  1  0
  5  6  1  0
  5  7  1  0
  5 11  1  0
  8  9  1  0
  8 10  1  0
  8 17  1  0
 11 12  1  0
 11 13  1  0
 11 14  1  0
 14 15  1  0
 14 16  1  0
 14 23  1  0
 17 18  1  0
 17 19  1  0
 17 20  1  0
 20 21  1  0
 20 22  1  0
 20 26  1  0
 23 24  1  0
 23 25  1  0
 23 29  1  0
 26 27  1  0
 26 28  1  0
 26 36  1  0
 29 30  1  0
 29 31  1  0
 29 32  1  0
 32 33  1  0
 32 34  1  0
 32 35  1  0
 36 37  1  0
 36 38  1  0
 36 39  1  0
M  CHG  1   1   1
M  RAD  1   1   2
M  END
$$$$
