
     RDKit          3D

 39 38  0  0  0  0  0  0  0  0999 V2000
    0.0000    0.6559    1.5521 S   0  0  0  0  0  2  0  0  0  0  0  0
   -1.3121    1.9221    2.6487 Si  0  0  0  0  0  4  0  0  0  0  0  0
   -2.2266    1.1920    3.5199 H   0  0  0  0  0  0  0  0  0  0  0  0
   -2.1051    2.7052    1.6639 H   0  0  0  0  0  0  0  0  0  0  0  0
    0.7427   -0.9666    2.7298 Si  0  0  0  0  0  4  0  0  0  0  0  0
    1.1100   -2.0564    1.7808 H   0  0  0  0  0  0  0  0  0  0  0  0
    1.9695   -0.6054    3.4346 H   0  0  0  0  0  0  0  0  0  0  0  0
   -0.0970    3.4186    3.8003 Si  0  0  0  0  0  4  0  0  0  0  0  0
   -0.9991    4.4219    4.3899 H   0  0  0  0  0  0  0  0  0  0  0  0
    0.8223    4.0478    2.8323 H   0  0  0  0  0  0  0  0  0  0  0  0
   -0.8160   -1.7912    4.0885 Si  0  0  0  0  0  4  0  0  0  0  0  0
   -1.9908   -0.8922    4.0053 H   0  0  0  0  0  0  0  0  0  0  0  0
   -1.2766   -3.1238    3.6550 H   0  0  0  0  0  0  0  0  0  0  0  0
   -0.1491   -1.9013    6.1842 Si  0  0  0  0  0  4  0  0  0  0  0  0
    0.7508   -0.8284    6.5805 H   0  0  0  0  0  0  0  0  0  0  0  0
   -1.3473   -1.8091    7.0585 H   0  0  0  0  0  0  0  0  0  0  0  0
    1.0768    2.4002    5.3811 Si  0  0  0  0  0  4  0  0  0  0  0  0
    2.4084    3.0370    5.4435 H   0  0  0  0  0  0  0  0  0  0  0  0
    1.2394    0.9808    5.0813 H   0  0  0  0  0  0  0  0  0  0  0  0
    0.0956    2.5616    7.3826 Si  0  0  0  0  0  4  0  0  0  0  0  0
    0.4650    3.8565    7.9518 H   0  0  0  0  0  0  0  0  0  0  0  0
    0.6803    1.4944    8.2317 H   0  0  0  0  0  0  0  0  0  0  0  0
    0.8585   -3.8428    6.6562 Si  0  0  0  0  0  4  0  0  0  0  0  0
    0.1746   -4.9720    5.9825 H   0  0  0  0  0  0  0  0  0  0  0  0
    2.2823   -3.8084    6.3902 H   0  0  0  0  0  0  0  0  0  0  0  0
   -2.1085    2.3292    7.2362 Si  0  0  0  0  0  4  0  0  0  0  0  0
   -2.7281    3.6038    7.6106 H   0  0  0  0  0  0  0  0  0  0  0  0
   -2.5124    1.9890    5.8660 H   0  0  0  0  0  0  0  0  0  0  0  0
    0.5730   -4.1845    8.8678 Si  0  0  0  0  0  4  0  0  0  0  0  0
    1.0503   -5.5047    9.2542 H   0  0  0  0  0  0  0  0  0  0  0  0
    1.3117   -3.0952    9.5491 H   0  0  0  0  0  0  0  0  0  0  0  0
   -1.5973   -3.8985    9.3006 Si  0  0  0  0  0  4  0  0  0  0  0  0
   -2.3920   -3.7789    8.0687 H   0  0  0  0  0  0  0  0  0  0  0  0
   -2.1412   -5.0584   10.0380 H   0  0  0  0  0  0  0  0  0  0  0  0
   -1.8370   -2.6675   10.0773 H   0  0  0  0  0  0  0  0  0  0  0  0
   -2.8731    0.7661    8.6255 Si  0  0  0  0  0  4  0  0  0  0  0  0
   -3.1675   -0.4687    7.8652 H   0  0  0  0  0  0  0  0  0  0  0  0
   -1.9173    0.4574    9.6860 H   0  0  0  0  0  0  0  0  0  0  0  0
   -4.1447    1.2020    9.2190 H   0  0  0  0  0  0  0  0  0  0  0  0
  1  2  1  0
  1  5  1  0
  2  3  1  0
  2  4  1  0
  2  8  1  0
  5  6  1  0
  5  7  1  0
  5 11  1  0
  8  9  1  0
  8 10  1  0
  8 17  1  0
 11 12  1  0
 11 13  1  0
 11 14  1  0
 14 15  1  0
 14 16  1  0
 14 23  1  0
 17 18  1  0
 17 19  1  0
 17 20  1  0
 20 21  1  0
 20 22  1  0
 20 26  1  0
 23 24  1  0
 23 25  1  0
 23 29  1  0
 26 27  1  0
 26 28  1  0
 26 36  1  0
 29 30  1  0
 29 31  1  0
 29 32  1  0
 32 33  1  0
 32 34  1  0
 32 35  1  0
 36 37  1  0
 36 38  1  0
 36 39  1  0
M  CHG  1   1   1
M  RAD  1   1   2
M  END
$$$$

     RDKit          3D

 39 38  0  0  0  0  0  0  0  0999 V2000
    0.0000    0.6559    1.5521 S   0  0  0  0  0  2  0  0  0  0  0  0
    1.2356    0.4822    3.2756 Si  0  0  0  0  0  4  0  0  0  0  0  0
    2.2447    1.5315    3.3720 H   0  0  0  0  0  0  0  0  0  0  0  0
    1.9169   -0.8380    3.2066 H   0  0  0  0  0  0  0  0  0  0  0  0
   -0.5490    2.6811    1.1416 Si  0  0  0  0  0  4  0  0  0  0  0  0
   -0.8543    2.7588   -0.3157 H   0  0  0  0  0  0  0  0  0  0  0  0
   -1.7748    3.0604    1.8385 H   0  0  0  0  0  0  0  0  0  0  0  0
   -0.0623    0.4179    5.1068 Si  0  0  0  0  0  4  0  0  0  0  0  0
    0.7690    0.0886    6.2767 H   0  0  0  0  0  0  0  0  0  0  0  0
   -1.0709   -0.6333    4.8705 H   0  0  0  0  0  0  0  0  0  0  0  0
    1.1285    4.0929    1.5265 Si  0  0  0  0  0  4  0  0  0  0  0  0
    2.2145    3.3186    2.1719 H   0  0  0  0  0  0  0  0  0  0  0  0
    1.6888    4.6379    0.2756 H   0  0  0  0  0  0  0  0  0  0  0  0
    0.5559    5.7574    2.8496 Si  0  0  0  0  0  4  0  0  0  0  0  0
   -0.4200    5.4003    3.8685 H   0  0  0  0  0  0  0  0  0  0  0  0
    1.7740    6.2267    3.5597 H   0  0  0  0  0  0  0  0  0  0  0  0
   -1.0785    2.3667    5.3957 Si  0  0  0  0  0  4  0  0  0  0  0  0
   -2.4582    2.0995    5.8517 H   0  0  0  0  0  0  0  0  0  0  0  0
   -1.1256    3.1235    4.1483 H   0  0  0  0  0  0  0  0  0  0  0  0
   -0.0388    3.6317    6.9168 Si  0  0  0  0  0  4  0  0  0  0  0  0
   -0.4997    3.2032    8.2362 H   0  0  0  0  0  0  0  0  0  0  0  0
   -0.4927    5.0267    6.6938 H   0  0  0  0  0  0  0  0  0  0  0  0
   -0.2557    7.5068    1.7146 Si  0  0  0  0  0  4  0  0  0  0  0  0
    0.4994    7.7187    0.4570 H   0  0  0  0  0  0  0  0  0  0  0  0
   -1.6862    7.4160    1.5031 H   0  0  0  0  0  0  0  0  0  0  0  0
    2.1700    3.4858    6.7326 Si  0  0  0  0  0  4  0  0  0  0  0  0
    2.6876    2.8407    7.9429 H   0  0  0  0  0  0  0  0  0  0  0  0
    2.5490    2.6796    5.5653 H   0  0  0  0  0  0  0  0  0  0  0  0
    0.1446    9.3279    2.9846 Si  0  0  0  0  0  4  0  0  0  0  0  0
   -0.1979   10.5468    2.2654 H   0  0  0  0  0  0  0  0  0  0  0  0
   -0.6613    9.1535    4.2161 H   0  0  0  0  0  0  0  0  0  0  0  0
    2.2960    9.2570    3.5728 Si  0  0  0  0  0  4  0  0  0  0  0  0
    3.0285    8.2056    2.8507 H   0  0  0  0  0  0  0  0  0  0  0  0
    2.9692   10.5327    3.2496 H   0  0  0  0  0  0  0  0  0  0  0  0
    2.4549    8.9691    5.0108 H   0  0  0  0  0  0  0  0  0  0  0  0
    3.1241    5.4910    6.5683 Si  0  0  0  0  0  4  0  0  0  0  0  0
    3.4976    5.7459    5.1594 H   0  0  0  0  0  0  0  0  0  0  0  0
    2.2414    6.5597    7.0291 H   0  0  0  0  0  0  0  0  0  0  0  0
    4.3738    5.5160    7.3407 H   0  0  0  0  0  0  0  0  0  0  0  0
  1  2  1  0
  1  5  1  0
  2  3  1  0
  2  4  1  0
  2  8  1  0
  5  6  1  0
  5  7  1  0
  5 11  1  0
  8  9  1  0
  8 10  1  0
  8 17  1  0
 11 12  1  0
 11 13  1  0
 11 14  1  0
 14 15  1  0
 14 16  1  0
 14 23  1  0
 17 18  1  0
 17 19  1  0
 17 20  1  0
 20 21  1  0
 20 22  1  0
 20 26  1  0
 23 24  1  0
 23 25  1  0
 23 29  1  0
 26 27  1  0
 26 28  1  0
 26 36  1  0
 29 30  1  0
 29 31  1  0
 29 32  1  0
 32 33  1  0
 32 34  1  0
 32 35  1  0
 36 37  1  0
 36 38  1  0
 36 39  1  0
M  CHG  1   1   1
M  RAD  1   1   2
M  END
$$$$
