
     RDKit          3D

 37 37  0  0  0  0  0  0  0  0999 V2000
    0.0000    0.0000   -3.8150 S   0  0  0  0  0  2  0  0  0  0  0  0
   -1.9491   -0.4749   -4.6316 Si  0  0  0  0  0  4  0  0  0  0  0  0
    1.4562   -0.7295   -5.2414 Si  0  0  0  0  0  4  0  0  0  0  0  0
    3.4575    0.0665   -4.8766 Si  0  0  0  0  0  4  0  0  0  0  0  0
    3.8775    2.0222   -5.7983 Si  0  0  0  0  0  4  0  0  0  0  0  0
   -2.5120   -0.5822   -8.2739 Si  0  0  0  0  0  4  0  0  0  0  0  0
   -2.3154    0.7124   -6.4880 Si  0  0  0  0  0  4  0  0  0  0  0  0
    2.3350    3.5467   -5.4558 Si  0  0  0  0  0  4  0  0  0  0  0  0
   -1.3966    0.2579  -10.0315 Si  0  0  0  0  0  4  0  0  0  0  0  0
    1.8819    4.7350   -7.2918 Si  0  0  0  0  0  4  0  0  0  0  0  0
   -1.9869    2.3192  -10.4859 Si  0  0  0  0  0  4  0  0  0  0  0  0
    1.2062    3.4480   -8.9782 Si  0  0  0  0  0  4  0  0  0  0  0  0
   -0.8964    3.8884   -9.4358 Si  0  0  0  0  0  4  0  0  0  0  0  0
   -2.0345   -2.1280   -4.9414 F   0  0  0  0  0  0  0  0  0  0  0  0
   -3.0983   -0.0047   -3.4806 F   0  0  0  0  0  0  0  0  0  0  0  0
    0.8569   -0.4499   -6.7683 F   0  0  0  0  0  0  0  0  0  0  0  0
    1.5025   -2.4245   -5.0295 F   0  0  0  0  0  0  0  0  0  0  0  0
    5.3790    2.5475   -5.1820 F   0  0  0  0  0  0  0  0  0  0  0  0
    4.1187    1.8362   -7.4742 F   0  0  0  0  0  0  0  0  0  0  0  0
    2.9198    4.6758   -4.3161 F   0  0  0  0  0  0  0  0  0  0  0  0
    0.9546    2.8788   -4.7844 F   0  0  0  0  0  0  0  0  0  0  0  0
   -3.7194    1.6569   -6.3346 F   0  0  0  0  0  0  0  0  0  0  0  0
   -1.0219    1.7322   -6.7285 F   0  0  0  0  0  0  0  0  0  0  0  0
    1.5028    1.8582   -8.5726 F   0  0  0  0  0  0  0  0  0  0  0  0
    2.1301    3.7879  -10.3678 F   0  0  0  0  0  0  0  0  0  0  0  0
   -1.7540    4.3355   -8.0276 F   0  0  0  0  0  0  0  0  0  0  0  0
   -0.9266    5.2997  -10.4038 F   0  0  0  0  0  0  0  0  0  0  0  0
   -3.6540    2.4900  -10.1550 F   0  0  0  0  0  0  0  0  0  0  0  0
   -1.8355    2.5678  -12.1684 F   0  0  0  0  0  0  0  0  0  0  0  0
    4.6095   -1.0394   -5.4728 F   0  0  0  0  0  0  0  0  0  0  0  0
    3.7225    0.1337   -3.1922 F   0  0  0  0  0  0  0  0  0  0  0  0
   -1.8340   -2.1146   -7.9574 F   0  0  0  0  0  0  0  0  0  0  0  0
   -4.1230   -0.8120   -8.6977 F   0  0  0  0  0  0  0  0  0  0  0  0
    3.2875    5.5446   -7.7478 F   0  0  0  0  0  0  0  0  0  0  0  0
    0.7131    5.8585   -6.9165 F   0  0  0  0  0  0  0  0  0  0  0  0
    0.2592    0.0443   -9.8632 F   0  0  0  0  0  0  0  0  0  0  0  0
   -1.8491   -0.7168  -11.3628 F   0  0  0  0  0  0  0  0  0  0  0  0
  1  2  1  0
  1  3  1  0
  2  7  1  0
  2 14  1  0
  2 15  1  0
  3  4  1  0
  3 16  1  0
  3 17  1  0
  4  5  1  0
  4 30  1  0
  4 31  1  0
  5  8  1  0
  5 18  1  0
  5 19  1  0
  6  7  1  0
  6  9  1  0
  6 32  1  0
  6 33  1  0
  7 22  1  0
  7 23  1  0
  8 10  1  0
  8 20  1  0
  8 21  1  0
  9 11  1  0
  9 36  1  0
  9 37  1  0
 10 12  1  0
 10 34  1  0
 10 35  1  0
 11 13  1  0
 11 28  1  0
 11 29  1  0
 12 13  1  0
 12 24  1  0
 12 25  1  0
 13 26  1  0
 13 27  1  0
M  CHG  1   1   1
M  RAD  1   1   2
M  END
$$$$

     RDKit          3D

 37 37  0  0  0  0  0  0  0  0999 V2000
    0.0000    0.0000   -3.8150 S   0  0  0  0  0  2  0  0  0  0  0  0
   -1.3487    1.2487   -4.9491 Si  0  0  0  0  0  4  0  0  0  0  0  0
   -0.1158   -2.0316   -4.4035 Si  0  0  0  0  0  4  0  0  0  0  0  0
    1.1104   -2.3890   -6.2447 Si  0  0  0  0  0  4  0  0  0  0  0  0
    1.0227   -4.5489   -6.8102 Si  0  0  0  0  0  4  0  0  0  0  0  0
   -1.5089    1.2347   -8.6379 Si  0  0  0  0  0  4  0  0  0  0  0  0
   -0.4248    1.9175   -6.8400 Si  0  0  0  0  0  4  0  0  0  0  0  0
    1.7235   -4.7347   -8.9166 Si  0  0  0  0  0  4  0  0  0  0  0  0
   -3.2485   -0.0623   -8.1322 Si  0  0  0  0  0  4  0  0  0  0  0  0
    0.3411   -3.8194  -10.3627 Si  0  0  0  0  0  4  0  0  0  0  0  0
   -4.1431   -0.9252   -9.9588 Si  0  0  0  0  0  4  0  0  0  0  0  0
   -1.7738   -3.7654   -9.6331 Si  0  0  0  0  0  4  0  0  0  0  0  0
   -2.9355   -2.4482  -10.9584 Si  0  0  0  0  0  4  0  0  0  0  0  0
   -1.6315    2.6313   -3.9858 F   0  0  0  0  0  0  0  0  0  0  0  0
   -2.8364    0.5108   -5.1623 F   0  0  0  0  0  0  0  0  0  0  0  0
   -1.6883   -2.5822   -4.5914 F   0  0  0  0  0  0  0  0  0  0  0  0
    0.5878   -2.9749   -3.1664 F   0  0  0  0  0  0  0  0  0  0  0  0
   -0.5054   -5.1856   -6.6063 F   0  0  0  0  0  0  0  0  0  0  0  0
    2.1617   -5.3663   -5.8371 F   0  0  0  0  0  0  0  0  0  0  0  0
    3.2152   -3.9376   -9.0295 F   0  0  0  0  0  0  0  0  0  0  0  0
    2.0246   -6.3653   -9.2772 F   0  0  0  0  0  0  0  0  0  0  0  0
    1.1900    1.3621   -6.8579 F   0  0  0  0  0  0  0  0  0  0  0  0
   -0.3141    3.6201   -6.9137 F   0  0  0  0  0  0  0  0  0  0  0  0
   -2.3423   -5.3759   -9.6888 F   0  0  0  0  0  0  0  0  0  0  0  0
   -1.7670   -3.3094   -8.0413 F   0  0  0  0  0  0  0  0  0  0  0  0
   -3.9866   -3.4327  -11.8817 F   0  0  0  0  0  0  0  0  0  0  0  0
   -1.9356   -1.6827  -12.1140 F   0  0  0  0  0  0  0  0  0  0  0  0
   -5.6654   -1.5742   -9.5480 F   0  0  0  0  0  0  0  0  0  0  0  0
   -4.4577    0.3437  -11.0387 F   0  0  0  0  0  0  0  0  0  0  0  0
    2.7091   -1.9487   -5.8608 F   0  0  0  0  0  0  0  0  0  0  0  0
    0.5712   -1.4927   -7.5413 F   0  0  0  0  0  0  0  0  0  0  0  0
   -0.4685    0.3814   -9.6670 F   0  0  0  0  0  0  0  0  0  0  0  0
   -2.1126    2.5441   -9.5499 F   0  0  0  0  0  0  0  0  0  0  0  0
    0.7802   -2.2333  -10.7442 F   0  0  0  0  0  0  0  0  0  0  0  0
    0.3583   -4.7201  -11.7915 F   0  0  0  0  0  0  0  0  0  0  0  0
   -4.4057    0.9401   -7.4162 F   0  0  0  0  0  0  0  0  0  0  0  0
   -2.8521   -1.2447   -7.0111 F   0  0  0  0  0  0  0  0  0  0  0  0
  1  2  1  0
  1  3  1  0
  2  7  1  0
  2 14  1  0
  2 15  1  0
  3  4  1  0
  3 16  1  0
  3 17  1  0
  4  5  1  0
  4 30  1  0
  4 31  1  0
  5  8  1  0
  5 18  1  0
  5 19  1  0
  6  7  1  0
  6  9  1  0
  6 32  1  0
  6 33  1  0
  7 22  1  0
  7 23  1  0
  8 10  1  0
  8 20  1  0
  8 21  1  0
  9 11  1  0
  9 36  1  0
  9 37  1  0
 10 12  1  0
 10 34  1  0
 10 35  1  0
 11 13  1  0
 11 28  1  0
 11 29  1  0
 12 13  1  0
 12 24  1  0
 12 25  1  0
 13 26  1  0
 13 27  1  0
M  CHG  1   1   1
M  RAD  1   1   2
M  END
$$$$

     RDKit          3D

 37 37  0  0  0  0  0  0  0  0999 V2000
    0.0000    0.0000   -3.8150 S   0  0  0  0  0  2  0  0  0  0  0  0
   -0.8348   -1.8241   -4.6316 Si  0  0  0  0  0  4  0  0  0  0  0  0
    1.4748    0.6910   -5.2414 Si  0  0  0  0  0  4  0  0  0  0  0  0
    2.0900    2.7551   -4.8766 Si  0  0  0  0  0  4  0  0  0  0  0  0
    0.8151    4.2966   -5.7983 Si  0  0  0  0  0  4  0  0  0  0  0  0
   -1.0994   -2.3325   -8.2739 Si  0  0  0  0  0  4  0  0  0  0  0  0
   -1.9937   -1.3761   -6.4880 Si  0  0  0  0  0  4  0  0  0  0  0  0
   -1.3372    4.0303   -5.4558 Si  0  0  0  0  0  4  0  0  0  0  0  0
   -1.0678   -0.9365  -10.0315 Si  0  0  0  0  0  4  0  0  0  0  0  0
   -2.5508    4.4108   -7.2918 Si  0  0  0  0  0  4  0  0  0  0  0  0
   -3.0514   -0.1227  -10.4859 Si  0  0  0  0  0  4  0  0  0  0  0  0
   -1.9592    3.0830   -8.9782 Si  0  0  0  0  0  4  0  0  0  0  0  0
   -3.6075    1.7055   -9.4358 Si  0  0  0  0  0  4  0  0  0  0  0  0
    0.4098   -2.9154   -4.9414 F   0  0  0  0  0  0  0  0  0  0  0  0
   -1.9159   -2.4349   -3.4806 F   0  0  0  0  0  0  0  0  0  0  0  0
    0.8841    0.3939   -6.7683 F   0  0  0  0  0  0  0  0  0  0  0  0
    2.8340   -0.3228   -5.0295 F   0  0  0  0  0  0  0  0  0  0  0  0
    1.3330    5.8006   -5.1820 F   0  0  0  0  0  0  0  0  0  0  0  0
    1.1105    4.3706   -7.4742 F   0  0  0  0  0  0  0  0  0  0  0  0
   -1.8612    5.1888   -4.3161 F   0  0  0  0  0  0  0  0  0  0  0  0
   -1.6682    2.5329   -4.7844 F   0  0  0  0  0  0  0  0  0  0  0  0
   -3.6050   -1.8929   -6.3346 F   0  0  0  0  0  0  0  0  0  0  0  0
   -1.9929    0.2711   -6.7285 F   0  0  0  0  0  0  0  0  0  0  0  0
   -0.5275    2.3309   -8.5726 F   0  0  0  0  0  0  0  0  0  0  0  0
   -1.6535    4.0189  -10.3678 F   0  0  0  0  0  0  0  0  0  0  0  0
   -4.4898    1.3093   -8.0276 F   0  0  0  0  0  0  0  0  0  0  0  0
   -4.7341    2.5562  -10.4038 F   0  0  0  0  0  0  0  0  0  0  0  0
   -4.2184   -1.3254  -10.1550 F   0  0  0  0  0  0  0  0  0  0  0  0
   -3.1528    0.1501  -12.1684 F   0  0  0  0  0  0  0  0  0  0  0  0
    3.6718    2.9742   -5.4728 F   0  0  0  0  0  0  0  0  0  0  0  0
    2.2014    3.0048   -3.1922 F   0  0  0  0  0  0  0  0  0  0  0  0
    0.5235   -2.7498   -7.9574 F   0  0  0  0  0  0  0  0  0  0  0  0
   -1.9171   -3.7394   -8.6977 F   0  0  0  0  0  0  0  0  0  0  0  0
   -2.3154    6.0158   -7.7478 F   0  0  0  0  0  0  0  0  0  0  0  0
   -4.1568    4.1894   -6.9165 F   0  0  0  0  0  0  0  0  0  0  0  0
    0.1258    0.2309   -9.8632 F   0  0  0  0  0  0  0  0  0  0  0  0
   -0.5830   -1.8956  -11.3628 F   0  0  0  0  0  0  0  0  0  0  0  0
  1  2  1  0
  1  3  1  0
  2  7  1  0
  2 14  1  0
  2 15  1  0
  3  4  1  0
  3 16  1  0
  3 17  1  0
  4  5  1  0
  4 30  1  0
  4 31  1  0
  5  8  1  0
  5 18  1  0
  5 19  1  0
  6  7  1  0
  6  9  1  0
  6 32  1  0
  6 33  1  0
  7 22  1  0
  7 23  1  0
  8 10  1  0
  8 20  1  0
  8 21  1  0
  9 11  1  0
  9 36  1  0
  9 37  1  0
 10 12  1  0
 10 34  1  0
 10 35  1  0
 11 13  1  0
 11 28  1  0
 11 29  1  0
 12 13  1  0
 12 24  1  0
 12 25  1  0
 13 26  1  0
 13 27  1  0
M  CHG  1   1   1
M  RAD  1   1   2
M  END
$$$$

     RDKit          3D

 37 37  0  0  0  0  0  0  0  0999 V2000
    0.0000    0.0000   -3.8150 S   0  0  0  0  0  2  0  0  0  0  0  0
    0.1152   -1.8344   -4.9491 Si  0  0  0  0  0  4  0  0  0  0  0  0
    1.4851    1.3911   -4.4035 Si  0  0  0  0  0  4  0  0  0  0  0  0
    0.8438    2.4956   -6.2447 Si  0  0  0  0  0  4  0  0  0  0  0  0
    2.3971    3.9990   -6.8102 Si  0  0  0  0  0  4  0  0  0  0  0  0
    0.2409   -1.9348   -8.6379 Si  0  0  0  0  0  4  0  0  0  0  0  0
   -1.0150   -1.6814   -6.8400 Si  0  0  0  0  0  4  0  0  0  0  0  0
    2.0179    4.6170   -8.9166 Si  0  0  0  0  0  4  0  0  0  0  0  0
    2.3951   -2.1956   -8.1322 Si  0  0  0  0  0  4  0  0  0  0  0  0
    2.3875    3.0007  -10.3627 Si  0  0  0  0  0  4  0  0  0  0  0  0
    3.6380   -2.1878   -9.9588 Si  0  0  0  0  0  4  0  0  0  0  0  0
    3.8815    1.5029   -9.6331 Si  0  0  0  0  0  4  0  0  0  0  0  0
    3.8141   -0.2521  -10.9584 Si  0  0  0  0  0  4  0  0  0  0  0  0
   -0.6337   -3.0305   -3.9858 F   0  0  0  0  0  0  0  0  0  0  0  0
    1.7014   -2.3262   -5.1623 F   0  0  0  0  0  0  0  0  0  0  0  0
    3.0035    0.7052   -4.5914 F   0  0  0  0  0  0  0  0  0  0  0  0
    1.6263    2.5595   -3.1664 F   0  0  0  0  0  0  0  0  0  0  0  0
    3.9427    3.4061   -6.6063 F   0  0  0  0  0  0  0  0  0  0  0  0
    2.1362    5.3765   -5.8371 F   0  0  0  0  0  0  0  0  0  0  0  0
    0.3880    5.0687   -9.0295 F   0  0  0  0  0  0  0  0  0  0  0  0
    2.9245    6.0053   -9.2772 F   0  0  0  0  0  0  0  0  0  0  0  0
   -1.8011   -0.1654   -6.8579 F   0  0  0  0  0  0  0  0  0  0  0  0
   -2.2695   -2.8378   -6.9137 F   0  0  0  0  0  0  0  0  0  0  0  0
    5.4039    2.2769   -9.6888 F   0  0  0  0  0  0  0  0  0  0  0  0
    3.5620    1.1774   -8.0413 F   0  0  0  0  0  0  0  0  0  0  0  0
    5.2542   -0.2643  -11.8817 F   0  0  0  0  0  0  0  0  0  0  0  0
    2.5621   -0.1167  -12.1140 F   0  0  0  0  0  0  0  0  0  0  0  0
    5.1879   -2.7679   -9.5480 F   0  0  0  0  0  0  0  0  0  0  0  0
    2.9906   -3.3235  -11.0387 F   0  0  0  0  0  0  0  0  0  0  0  0
   -0.6174    3.2795   -5.8608 F   0  0  0  0  0  0  0  0  0  0  0  0
    0.6160    1.4748   -7.5413 F   0  0  0  0  0  0  0  0  0  0  0  0
    0.0761   -0.5993   -9.6670 F   0  0  0  0  0  0  0  0  0  0  0  0
   -0.2251   -3.2992   -9.5499 F   0  0  0  0  0  0  0  0  0  0  0  0
    0.9755    2.1552  -10.7442 F   0  0  0  0  0  0  0  0  0  0  0  0
    2.9963    3.6647  -11.7915 F   0  0  0  0  0  0  0  0  0  0  0  0
    2.5415   -3.7195   -7.4162 F   0  0  0  0  0  0  0  0  0  0  0  0
    2.9236   -1.0660   -7.0111 F   0  0  0  0  0  0  0  0  0  0  0  0
  1  2  1  0
  1  3  1  0
  2  7  1  0
  2 14  1  0
  2 15  1  0
  3  4  1  0
  3 16  1  0
  3 17  1  0
  4  5  1  0
  4 30  1  0
  4 31  1  0
  5  8  1  0
  5 18  1  0
  5 19  1  0
  6  7  1  0
  6  9  1  0
  6 32  1  0
  6 33  1  0
  7 22  1  0
  7 23  1  0
  8 10  1  0
  8 20  1  0
  8 21  1  0
  9 11  1  0
  9 36  1  0
  9 37  1  0
 10 12  1  0
 10 34  1  0
 10 35  1  0
 11 13  1  0
 11 28  1  0
 11 29  1  0
 12 13  1  0
 12 24  1  0
 12 25  1  0
 13 26  1  0
 13 27  1  0
M  CHG  1   1   1
M  RAD  1   1   2
M  END
$$$$

     RDKit          3D

 37 37  0  0  0  0  0  0  0  0999 V2000
    0.0000    0.0000   -3.8150 S   0  0  0  0  0  2  0  0  0  0  0  0
   -0.5691   -1.9237   -4.6316 Si  0  0  0  0  0  4  0  0  0  0  0  0
    1.3626    0.8922   -5.2414 Si  0  0  0  0  0  4  0  0  0  0  0  0
    1.6804    3.0224   -4.8766 Si  0  0  0  0  0  4  0  0  0  0  0  0
    0.2007    4.3686   -5.7983 Si  0  0  0  0  0  4  0  0  0  0  0  0
   -0.7593   -2.4643   -8.2739 Si  0  0  0  0  0  4  0  0  0  0  0  0
   -1.7796   -1.6436   -6.4880 Si  0  0  0  0  0  4  0  0  0  0  0  0
   -1.8925    3.8013   -5.4558 Si  0  0  0  0  0  4  0  0  0  0  0  0
   -0.9249   -1.0778  -10.0315 Si  0  0  0  0  0  4  0  0  0  0  0  0
   -3.1476    4.0068   -7.2918 Si  0  0  0  0  0  4  0  0  0  0  0  0
   -3.0036   -0.5520  -10.4859 Si  0  0  0  0  0  4  0  0  0  0  0  0
   -2.3746    2.7758   -8.9782 Si  0  0  0  0  0  4  0  0  0  0  0  0
   -3.8121    1.1795   -9.4358 Si  0  0  0  0  0  4  0  0  0  0  0  0
    0.8170   -2.8284   -4.9414 F   0  0  0  0  0  0  0  0  0  0  0  0
   -1.5532   -2.6809   -3.4806 F   0  0  0  0  0  0  0  0  0  0  0  0
    0.8197    0.5147   -6.7683 F   0  0  0  0  0  0  0  0  0  0  0  0
    2.8512    0.0803   -5.0295 F   0  0  0  0  0  0  0  0  0  0  0  0
    0.5013    5.9306   -5.1820 F   0  0  0  0  0  0  0  0  0  0  0  0
    0.4827    4.4835   -7.4742 F   0  0  0  0  0  0  0  0  0  0  0  0
   -2.5747    4.8743   -4.3161 F   0  0  0  0  0  0  0  0  0  0  0  0
   -2.0089    2.2722   -4.7844 F   0  0  0  0  0  0  0  0  0  0  0  0
   -3.3018   -2.3826   -6.3346 F   0  0  0  0  0  0  0  0  0  0  0  0
   -2.0112   -0.0128   -6.7285 F   0  0  0  0  0  0  0  0  0  0  0  0
   -0.8511    2.2331   -8.5726 F   0  0  0  0  0  0  0  0  0  0  0  0
   -2.2040    3.7454  -10.3678 F   0  0  0  0  0  0  0  0  0  0  0  0
   -4.6297    0.6627   -8.0276 F   0  0  0  0  0  0  0  0  0  0  0  0
   -5.0474    1.8627  -10.4038 F   0  0  0  0  0  0  0  0  0  0  0  0
   -3.9892   -1.9073  -10.1550 F   0  0  0  0  0  0  0  0  0  0  0  0
   -3.1424   -0.2962  -12.1684 F   0  0  0  0  0  0  0  0  0  0  0  0
    3.2154    3.4625   -5.4728 F   0  0  0  0  0  0  0  0  0  0  0  0
    1.7554    3.2854   -3.1922 F   0  0  0  0  0  0  0  0  0  0  0  0
    0.9063   -2.6484   -7.9574 F   0  0  0  0  0  0  0  0  0  0  0  0
   -1.3703   -3.9725   -8.6977 F   0  0  0  0  0  0  0  0  0  0  0  0
   -3.1410    5.6289   -7.7478 F   0  0  0  0  0  0  0  0  0  0  0  0
   -4.7063    3.5610   -6.9165 F   0  0  0  0  0  0  0  0  0  0  0  0
    0.0920    0.2463   -9.8632 F   0  0  0  0  0  0  0  0  0  0  0  0
   -0.3097   -1.9589  -11.3628 F   0  0  0  0  0  0  0  0  0  0  0  0
  1  2  1  0
  1  3  1  0
  2  7  1  0
  2 14  1  0
  2 15  1  0
  3  4  1  0
  3 16  1  0
  3 17  1  0
  4  5  1  0
  4 30  1  0
  4 31  1  0
  5  8  1  0
  5 18  1  0
  5 19  1  0
  6  7  1  0
  6  9  1  0
  6 32  1  0
  6 33  1  0
  7 22  1  0
  7 23  1  0
  8 10  1  0
  8 20  1  0
  8 21  1  0
  9 11  1  0
  9 36  1  0
  9 37  1  0
 10 12  1  0
 10 34  1  0
 10 35  1  0
 11 13  1  0
 11 28  1  0
 11 29  1  0
 12 13  1  0
 12 24  1  0
 12 25  1  0
 13 26  1  0
 13 27  1  0
M  CHG  1   1   1
M  RAD  1   1   2
M  END
$$$$

     RDKit          3D

 37 37  0  0  0  0  0  0  0  0999 V2000
    0.0000    0.0000   -3.8150 S   0  0  0  0  0  2  0  0  0  0  0  0
    1.6045    0.8966   -4.9491 Si  0  0  0  0  0  4  0  0  0  0  0  0
   -1.8963    0.7381   -4.4035 Si  0  0  0  0  0  4  0  0  0  0  0  0
   -2.6152   -0.3174   -6.2447 Si  0  0  0  0  0  4  0  0  0  0  0  0
   -4.6423    0.4337   -6.8102 Si  0  0  0  0  0  4  0  0  0  0  0  0
    1.6407    1.0533   -8.6379 Si  0  0  0  0  0  4  0  0  0  0  0  0
    1.9549   -0.1888   -6.8400 Si  0  0  0  0  0  4  0  0  0  0  0  0
   -5.0356   -0.1754   -8.9166 Si  0  0  0  0  0  4  0  0  0  0  0  0
    0.9450    3.1086   -8.1322 Si  0  0  0  0  0  4  0  0  0  0  0  0
   -3.7378    0.8564  -10.3627 Si  0  0  0  0  0  4  0  0  0  0  0  0
    0.4009    4.2262   -9.9588 Si  0  0  0  0  0  4  0  0  0  0  0  0
   -3.0326    2.8510   -9.6331 Si  0  0  0  0  0  4  0  0  0  0  0  0
   -1.4208    3.5485  -10.9584 Si  0  0  0  0  0  4  0  0  0  0  0  0
    3.0068    0.7381   -3.9858 F   0  0  0  0  0  0  0  0  0  0  0  0
    1.3626    2.5396   -5.1623 F   0  0  0  0  0  0  0  0  0  0  0  0
   -1.9338    2.4038   -4.5914 F   0  0  0  0  0  0  0  0  0  0  0  0
   -3.0109    0.3606   -3.1664 F   0  0  0  0  0  0  0  0  0  0  0  0
   -4.7754    2.0837   -6.6063 F   0  0  0  0  0  0  0  0  0  0  0  0
   -5.7717   -0.3969   -5.8371 F   0  0  0  0  0  0  0  0  0  0  0  0
   -4.7386   -1.8404   -9.0295 F   0  0  0  0  0  0  0  0  0  0  0  0
   -6.6794    0.0423   -9.2772 F   0  0  0  0  0  0  0  0  0  0  0  0
    0.9275   -1.5528   -6.8579 F   0  0  0  0  0  0  0  0  0  0  0  0
    3.5399   -0.8204   -6.9137 F   0  0  0  0  0  0  0  0  0  0  0  0
   -4.3885    3.8895   -9.6888 F   0  0  0  0  0  0  0  0  0  0  0  0
   -2.6010    2.7035   -8.0413 F   0  0  0  0  0  0  0  0  0  0  0  0
   -2.0321    4.8525  -11.8817 F   0  0  0  0  0  0  0  0  0  0  0  0
   -1.0019    2.3610  -12.1140 F   0  0  0  0  0  0  0  0  0  0  0  0
    0.2543    5.8746   -9.5480 F   0  0  0  0  0  0  0  0  0  0  0  0
    1.7049    4.1331  -11.0387 F   0  0  0  0  0  0  0  0  0  0  0  0
   -2.6907   -1.9739   -5.8608 F   0  0  0  0  0  0  0  0  0  0  0  0
   -1.5962   -0.0817   -7.5413 F   0  0  0  0  0  0  0  0  0  0  0  0
    0.5076    0.3276   -9.6670 F   0  0  0  0  0  0  0  0  0  0  0  0
    3.0725    1.2226   -9.5499 F   0  0  0  0  0  0  0  0  0  0  0  0
   -2.3651   -0.0516  -10.7442 F   0  0  0  0  0  0  0  0  0  0  0  0
   -4.5997    1.1184  -11.7915 F   0  0  0  0  0  0  0  0  0  0  0  0
    2.2560    3.8992   -7.4162 F   0  0  0  0  0  0  0  0  0  0  0  0
   -0.3020    3.0972   -7.0111 F   0  0  0  0  0  0  0  0  0  0  0  0
  1  2  1  0
  1  3  1  0
  2  7  1  0
  2 14  1  0
  2 15  1  0
  3  4  1  0
  3 16  1  0
  3 17  1  0
  4  5  1  0
  4 30  1  0
  4 31  1  0
  5  8  1  0
  5 18  1  0
  5 19  1  0
  6  7  1  0
  6  9  1  0
  6 32  1  0
  6 33  1  0
  7 22  1  0
  7 23  1  0
  8 10  1  0
  8 20  1  0
  8 21  1  0
  9 11  1  0
  9 36  1  0
  9 37  1  0
 10 12  1  0
 10 34  1  0
 10 35  1  0
 11 13  1  0
 11 28  1  0
 11 29  1  0
 12 13  1  0
 12 24  1  0
 12 25  1  0
 13 26  1  0
 13 27  1  0
M  CHG  1   1   1
M  RAD  1   1   2
M  END
$$$$

     RDKit          3D

 37 37  0  0  0  0  0  0  0  0999 V2000
    0.0000    0.0000   -3.8150 S   0  0  0  0  0  2  0  0  0  0  0  0
   -0.4144   -1.9628   -4.6316 Si  0  0  0  0  0  4  0  0  0  0  0  0
    1.2874    0.9977   -5.2414 Si  0  0  0  0  0  4  0  0  0  0  0  0
    1.4348    3.1465   -4.8766 Si  0  0  0  0  0  4  0  0  0  0  0  0
   -0.1472    4.3707   -5.7983 Si  0  0  0  0  0  4  0  0  0  0  0  0
   -0.5610   -2.5168   -8.2739 Si  0  0  0  0  0  4  0  0  0  0  0  0
   -1.6433   -1.7799   -6.4880 Si  0  0  0  0  0  4  0  0  0  0  0  0
   -2.1887    3.6388   -5.4558 Si  0  0  0  0  0  4  0  0  0  0  0  0
   -0.8363   -1.1479  -10.0315 Si  0  0  0  0  0  4  0  0  0  0  0  0
   -3.4561    3.7440   -7.2918 Si  0  0  0  0  0  4  0  0  0  0  0  0
   -2.9502   -0.7891  -10.4859 Si  0  0  0  0  0  4  0  0  0  0  0  0
   -2.5877    2.5783   -8.9782 Si  0  0  0  0  0  4  0  0  0  0  0  0
   -3.8938    0.8727   -9.4358 Si  0  0  0  0  0  4  0  0  0  0  0  0
    1.0393   -2.7545   -4.9414 F   0  0  0  0  0  0  0  0  0  0  0  0
   -1.3352   -2.7958   -3.4806 F   0  0  0  0  0  0  0  0  0  0  0  0
    0.7762    0.5782   -6.7683 F   0  0  0  0  0  0  0  0  0  0  0  0
    2.8358    0.3067   -5.0295 F   0  0  0  0  0  0  0  0  0  0  0  0
    0.0283    5.9517   -5.1820 F   0  0  0  0  0  0  0  0  0  0  0  0
    0.1248    4.5077   -7.4742 F   0  0  0  0  0  0  0  0  0  0  0  0
   -2.9540    4.6542   -4.3161 F   0  0  0  0  0  0  0  0  0  0  0  0
   -2.1831    2.1053   -4.7844 F   0  0  0  0  0  0  0  0  0  0  0  0
   -3.1020   -2.6375   -6.3346 F   0  0  0  0  0  0  0  0  0  0  0  0
   -2.0038   -0.1726   -6.7285 F   0  0  0  0  0  0  0  0  0  0  0  0
   -1.0259    2.1584   -8.5726 F   0  0  0  0  0  0  0  0  0  0  0  0
   -2.4947    3.5583  -10.3678 F   0  0  0  0  0  0  0  0  0  0  0  0
   -4.6677    0.2926   -8.0276 F   0  0  0  0  0  0  0  0  0  0  0  0
   -5.1794    1.4556  -10.4038 F   0  0  0  0  0  0  0  0  0  0  0  0
   -3.8250   -2.2184  -10.1550 F   0  0  0  0  0  0  0  0  0  0  0  0
   -3.1089   -0.5451  -12.1684 F   0  0  0  0  0  0  0  0  0  0  0  0
    2.9300    3.7072   -5.4728 F   0  0  0  0  0  0  0  0  0  0  0  0
    1.4887    3.4145   -3.1922 F   0  0  0  0  0  0  0  0  0  0  0  0
    1.1139   -2.5680   -7.9574 F   0  0  0  0  0  0  0  0  0  0  0  0
   -1.0502   -4.0688   -8.6977 F   0  0  0  0  0  0  0  0  0  0  0  0
   -3.5785    5.3614   -7.7478 F   0  0  0  0  0  0  0  0  0  0  0  0
   -4.9744    3.1757   -6.9165 F   0  0  0  0  0  0  0  0  0  0  0  0
    0.0721    0.2528   -9.8632 F   0  0  0  0  0  0  0  0  0  0  0  0
   -0.1531   -1.9773  -11.3628 F   0  0  0  0  0  0  0  0  0  0  0  0
  1  2  1  0
  1  3  1  0
  2  7  1  0
  2 14  1  0
  2 15  1  0
  3  4  1  0
  3 16  1  0
  3 17  1  0
  4  5  1  0
  4 30  1  0
  4 31  1  0
  5  8  1  0
  5 18  1  0
  5 19  1  0
  6  7  1  0
  6  9  1  0
  6 32  1  0
  6 33  1  0
  7 22  1  0
  7 23  1  0
  8 10  1  0
  8 20  1  0
  8 21  1  0
  9 11  1  0
  9 36  1  0
  9 37  1  0
 10 12  1  0
 10 34  1  0
 10 35  1  0
 11 13  1  0
 11 28  1  0
 11 29  1  0
 12 13  1  0
 12 24  1  0
 12 25  1  0
 13 26  1  0
 13 27  1  0
M  CHG  1   1   1
M  RAD  1   1   2
M  END
$$$$
