
     RDKit          3D

 37 37  0  0  0  0  0  0  0  0999 V2000
   -0.0001   -0.0003   -4.6668 S   0  0  0  0  0  2  0  0  0  0  0  0
   -2.1400    0.2294   -4.9106 Si  0  0  0  0  0  4  0  0  0  0  0  0
    0.6973   -1.2849   -6.2376 Si  0  0  0  0  0  4  0  0  0  0  0  0
    2.7354   -0.7723   -6.9041 Si  0  0  0  0  0  4  0  0  0  0  0  0
    2.9302   -0.7882   -9.1309 Si  0  0  0  0  0  4  0  0  0  0  0  0
   -4.6020    2.0945   -6.9272 Si  0  0  0  0  0  4  0  0  0  0  0  0
   -2.4637    1.5539   -6.6783 Si  0  0  0  0  0  4  0  0  0  0  0  0
    1.8007    0.8644  -10.0743 Si  0  0  0  0  0  4  0  0  0  0  0  0
   -5.5239    1.1550   -8.6992 Si  0  0  0  0  0  4  0  0  0  0  0  0
    0.7491    0.2594  -11.9147 Si  0  0  0  0  0  4  0  0  0  0  0  0
   -4.2393   -0.3546   -9.6676 Si  0  0  0  0  0  4  0  0  0  0  0  0
   -1.1386   -0.8139  -11.5578 Si  0  0  0  0  0  4  0  0  0  0  0  0
   -2.8520    0.5601  -11.1717 Si  0  0  0  0  0  4  0  0  0  0  0  0
   -2.8528    0.8315   -3.5311 F   0  0  0  0  0  0  0  0  0  0  0  0
   -2.7462   -1.3050   -5.3213 F   0  0  0  0  0  0  0  0  0  0  0  0
    0.6146   -2.8828   -5.6466 F   0  0  0  0  0  0  0  0  0  0  0  0
   -0.3573   -1.1728   -7.5174 F   0  0  0  0  0  0  0  0  0  0  0  0
    2.4597   -2.2938   -9.7088 F   0  0  0  0  0  0  0  0  0  0  0  0
    4.5996   -0.6427   -9.4616 F   0  0  0  0  0  0  0  0  0  0  0  0
    0.7808    1.5591   -8.9314 F   0  0  0  0  0  0  0  0  0  0  0  0
    2.9253    2.0784  -10.5011 F   0  0  0  0  0  0  0  0  0  0  0  0
   -1.9642    0.7367   -8.0420 F   0  0  0  0  0  0  0  0  0  0  0  0
   -1.4917    2.9191   -6.4846 F   0  0  0  0  0  0  0  0  0  0  0  0
   -1.5167   -1.6877  -12.9771 F   0  0  0  0  0  0  0  0  0  0  0  0
   -0.9968   -1.9811  -10.3351 F   0  0  0  0  0  0  0  0  0  0  0  0
   -3.7663    0.7789  -12.5978 F   0  0  0  0  0  0  0  0  0  0  0  0
   -2.3420    2.0852  -10.6951 F   0  0  0  0  0  0  0  0  0  0  0  0
   -3.4016   -1.3051   -8.5594 F   0  0  0  0  0  0  0  0  0  0  0  0
   -5.2522   -1.4218  -10.5356 F   0  0  0  0  0  0  0  0  0  0  0  0
    3.2500    0.6884   -6.2630 F   0  0  0  0  0  0  0  0  0  0  0  0
    3.7991   -1.9694   -6.3128 F   0  0  0  0  0  0  0  0  0  0  0  0
   -4.6721    3.7874   -7.1397 F   0  0  0  0  0  0  0  0  0  0  0  0
   -5.4914    1.7808   -5.5054 F   0  0  0  0  0  0  0  0  0  0  0  0
    1.7849   -0.7647  -12.8025 F   0  0  0  0  0  0  0  0  0  0  0  0
    0.4452    1.6021  -12.8798 F   0  0  0  0  0  0  0  0  0  0  0  0
   -5.9683    2.3009   -9.8727 F   0  0  0  0  0  0  0  0  0  0  0  0
   -6.9701    0.3992   -8.2054 F   0  0  0  0  0  0  0  0  0  0  0  0
  1  2  1  0
  1  3  1  0
  2  7  1  0
  2 14  1  0
  2 15  1  0
  3  4  1  0
  3 16  1  0
  3 17  1  0
  4  5  1  0
  4 30  1  0
  4 31  1  0
  5  8  1  0
  5 18  1  0
  5 19  1  0
  6  7  1  0
  6  9  1  0
  6 32  1  0
  6 33  1  0
  7 22  1  0
  7 23  1  0
  8 10  1  0
  8 20  1  0
  8 21  1  0
  9 11  1  0
  9 36  1  0
  9 37  1  0
 10 12  1  0
 10 34  1  0
 10 35  1  0
 11 13  1  0
 11 28  1  0
 11 29  1  0
 12 13  1  0
 12 24  1  0
 12 25  1  0
 13 26  1  0
 13 27  1  0
M  CHG  1   1   1
M  RAD  1   1   2
M  END
$$$$
