
     RDKit          3D

 37 37  0  0  0  0  0  0  0  0999 V2000
   -0.5654    1.0604   -2.7286 S   0  0  0  0  0  2  0  0  0  0  0  0
   -2.5947    1.5979   -2.8901 Si  0  0  0  0  0  4  0  0  0  0  0  0
    0.1514   -0.1794   -4.2722 Si  0  0  0  0  0  4  0  0  0  0  0  0
    1.1029    0.9946   -5.9375 Si  0  0  0  0  0  4  0  0  0  0  0  0
    1.0548   -0.2601   -7.7934 Si  0  0  0  0  0  4  0  0  0  0  0  0
   -3.9703    0.6130   -6.0845 Si  0  0  0  0  0  4  0  0  0  0  0  0
   -3.8433    0.1067   -3.9292 Si  0  0  0  0  0  4  0  0  0  0  0  0
    0.1372    0.8234   -9.4930 Si  0  0  0  0  0  4  0  0  0  0  0  0
   -5.0357    2.5621   -6.4104 Si  0  0  0  0  0  4  0  0  0  0  0  0
   -1.7011   -0.1618  -10.2434 Si  0  0  0  0  0  4  0  0  0  0  0  0
   -4.4017    3.3119   -8.4407 Si  0  0  0  0  0  4  0  0  0  0  0  0
   -3.0436    1.3418  -11.2481 Si  0  0  0  0  0  4  0  0  0  0  0  0
   -4.8281    1.7803  -10.0051 Si  0  0  0  0  0  4  0  0  0  0  0  0
   -3.2238    1.8081   -1.3174 F   0  0  0  0  0  0  0  0  0  0  0  0
   -2.6987    3.1187   -3.6405 F   0  0  0  0  0  0  0  0  0  0  0  0
   -1.0002   -1.1886   -4.9349 F   0  0  0  0  0  0  0  0  0  0  0  0
    1.3823   -1.1762   -3.6349 F   0  0  0  0  0  0  0  0  0  0  0  0
    2.6772   -0.6493   -8.1544 F   0  0  0  0  0  0  0  0  0  0  0  0
    0.2720   -1.7311   -7.5132 F   0  0  0  0  0  0  0  0  0  0  0  0
   -0.1353    2.4252   -9.0373 F   0  0  0  0  0  0  0  0  0  0  0  0
    1.2510    0.8788  -10.7847 F   0  0  0  0  0  0  0  0  0  0  0  0
   -3.2583   -1.4541   -3.7798 F   0  0  0  0  0  0  0  0  0  0  0  0
   -5.4072    0.1208   -3.2479 F   0  0  0  0  0  0  0  0  0  0  0  0
   -2.1840    2.7469  -11.6244 F   0  0  0  0  0  0  0  0  0  0  0  0
   -3.5993    0.7133  -12.7338 F   0  0  0  0  0  0  0  0  0  0  0  0
   -5.3829    0.3429   -9.3447 F   0  0  0  0  0  0  0  0  0  0  0  0
   -6.0375    2.4130  -11.0254 F   0  0  0  0  0  0  0  0  0  0  0  0
   -5.2817    4.7395   -8.7224 F   0  0  0  0  0  0  0  0  0  0  0  0
   -2.7733    3.7406   -8.4354 F   0  0  0  0  0  0  0  0  0  0  0  0
    2.6535    1.3975   -5.4903 F   0  0  0  0  0  0  0  0  0  0  0  0
    0.1713    2.3948   -6.1655 F   0  0  0  0  0  0  0  0  0  0  0  0
   -4.7739   -0.6038   -6.9133 F   0  0  0  0  0  0  0  0  0  0  0  0
   -2.4151    0.8103   -6.6787 F   0  0  0  0  0  0  0  0  0  0  0  0
   -2.5295   -0.9980   -9.0697 F   0  0  0  0  0  0  0  0  0  0  0  0
   -1.2328   -1.2878  -11.4363 F   0  0  0  0  0  0  0  0  0  0  0  0
   -6.6849    2.3361   -6.4311 F   0  0  0  0  0  0  0  0  0  0  0  0
   -4.5973    3.7012   -5.2745 F   0  0  0  0  0  0  0  0  0  0  0  0
  1  2  1  0
  1  3  1  0
  2  7  1  0
  2 14  1  0
  2 15  1  0
  3  4  1  0
  3 16  1  0
  3 17  1  0
  4  5  1  0
  4 30  1  0
  4 31  1  0
  5  8  1  0
  5 18  1  0
  5 19  1  0
  6  7  1  0
  6  9  1  0
  6 32  1  0
  6 33  1  0
  7 22  1  0
  7 23  1  0
  8 10  1  0
  8 20  1  0
  8 21  1  0
  9 11  1  0
  9 36  1  0
  9 37  1  0
 10 12  1  0
 10 34  1  0
 10 35  1  0
 11 13  1  0
 11 28  1  0
 11 29  1  0
 12 13  1  0
 12 24  1  0
 12 25  1  0
 13 26  1  0
 13 27  1  0
M  CHG  1   1   1
M  RAD  1   1   2
M  END
$$$$

     RDKit          3D

 37 37  0  0  0  0  0  0  0  0999 V2000
   -0.5654    1.0604   -2.7286 S   0  0  0  0  0  2  0  0  0  0  0  0
   -2.6347    1.3195   -3.0186 Si  0  0  0  0  0  4  0  0  0  0  0  0
    0.4189   -0.0082   -4.2527 Si  0  0  0  0  0  4  0  0  0  0  0  0
    1.3055    1.3491   -5.8109 Si  0  0  0  0  0  4  0  0  0  0  0  0
    1.5570    0.1726   -7.7013 Si  0  0  0  0  0  4  0  0  0  0  0  0
   -3.6433    0.2792   -6.3303 Si  0  0  0  0  0  4  0  0  0  0  0  0
   -3.5904   -0.2879   -4.1871 Si  0  0  0  0  0  4  0  0  0  0  0  0
    0.6120    1.1846   -9.4297 Si  0  0  0  0  0  4  0  0  0  0  0  0
   -4.9468    2.0744   -6.6744 Si  0  0  0  0  0  4  0  0  0  0  0  0
   -1.0163   -0.0143  -10.3376 Si  0  0  0  0  0  4  0  0  0  0  0  0
   -4.2903    2.9824   -8.6316 Si  0  0  0  0  0  4  0  0  0  0  0  0
   -2.4861    1.3282  -11.3913 Si  0  0  0  0  0  4  0  0  0  0  0  0
   -4.3931    1.4685  -10.2664 Si  0  0  0  0  0  4  0  0  0  0  0  0
   -3.3902    1.3800   -1.4893 F   0  0  0  0  0  0  0  0  0  0  0  0
   -2.9002    2.8395   -3.7299 F   0  0  0  0  0  0  0  0  0  0  0  0
   -0.5335   -1.1398   -5.0248 F   0  0  0  0  0  0  0  0  0  0  0  0
    1.7320   -0.8502   -3.5585 F   0  0  0  0  0  0  0  0  0  0  0  0
    3.2384    0.0246   -7.9570 F   0  0  0  0  0  0  0  0  0  0  0  0
    0.9709   -1.4018   -7.5206 F   0  0  0  0  0  0  0  0  0  0  0  0
    0.0884    2.7148   -8.9482 F   0  0  0  0  0  0  0  0  0  0  0  0
    1.7906    1.4427  -10.6366 F   0  0  0  0  0  0  0  0  0  0  0  0
   -2.8040   -1.7580   -4.0419 F   0  0  0  0  0  0  0  0  0  0  0  0
   -5.1827   -0.5155   -3.6189 F   0  0  0  0  0  0  0  0  0  0  0  0
   -1.8084    2.8517  -11.6643 F   0  0  0  0  0  0  0  0  0  0  0  0
   -2.8482    0.6872  -12.9305 F   0  0  0  0  0  0  0  0  0  0  0  0
   -4.7840   -0.0561   -9.6894 F   0  0  0  0  0  0  0  0  0  0  0  0
   -5.6085    1.9679  -11.3514 F   0  0  0  0  0  0  0  0  0  0  0  0
   -5.3407    4.2853   -8.9337 F   0  0  0  0  0  0  0  0  0  0  0  0
   -2.7419    3.6306   -8.4978 F   0  0  0  0  0  0  0  0  0  0  0  0
    2.7513    1.9439   -5.2428 F   0  0  0  0  0  0  0  0  0  0  0  0
    0.2044    2.6156   -6.0639 F   0  0  0  0  0  0  0  0  0  0  0  0
   -4.2118   -1.0035   -7.2494 F   0  0  0  0  0  0  0  0  0  0  0  0
   -2.0949    0.7115   -6.8061 F   0  0  0  0  0  0  0  0  0  0  0  0
   -1.7958   -1.0013   -9.2508 F   0  0  0  0  0  0  0  0  0  0  0  0
   -0.3167   -1.0180  -11.5264 F   0  0  0  0  0  0  0  0  0  0  0  0
   -6.5431    1.6247   -6.8192 F   0  0  0  0  0  0  0  0  0  0  0  0
   -4.7487    3.2181   -5.4774 F   0  0  0  0  0  0  0  0  0  0  0  0
  1  2  1  0
  1  3  1  0
  2  7  1  0
  2 14  1  0
  2 15  1  0
  3  4  1  0
  3 16  1  0
  3 17  1  0
  4  5  1  0
  4 30  1  0
  4 31  1  0
  5  8  1  0
  5 18  1  0
  5 19  1  0
  6  7  1  0
  6  9  1  0
  6 32  1  0
  6 33  1  0
  7 22  1  0
  7 23  1  0
  8 10  1  0
  8 20  1  0
  8 21  1  0
  9 11  1  0
  9 36  1  0
  9 37  1  0
 10 12  1  0
 10 34  1  0
 10 35  1  0
 11 13  1  0
 11 28  1  0
 11 29  1  0
 12 13  1  0
 12 24  1  0
 12 25  1  0
 13 26  1  0
 13 27  1  0
M  CHG  1   1   1
M  RAD  1   1   2
M  END
$$$$

     RDKit          3D

 37 37  0  0  0  0  0  0  0  0999 V2000
   -0.5654    1.0604   -2.7286 S   0  0  0  0  0  2  0  0  0  0  0  0
   -2.6267    1.4124   -2.9744 Si  0  0  0  0  0  4  0  0  0  0  0  0
    0.3325   -0.0694   -4.2619 Si  0  0  0  0  0  4  0  0  0  0  0  0
    1.2445    1.2283   -5.8560 Si  0  0  0  0  0  4  0  0  0  0  0  0
    1.3970    0.0209   -7.7375 Si  0  0  0  0  0  4  0  0  0  0  0  0
   -3.7593    0.3845   -6.2496 Si  0  0  0  0  0  4  0  0  0  0  0  0
   -3.6828   -0.1613   -4.1016 Si  0  0  0  0  0  4  0  0  0  0  0  0
    0.4598    1.0571   -9.4558 Si  0  0  0  0  0  4  0  0  0  0  0  0
   -4.9860    2.2345   -6.5852 Si  0  0  0  0  0  4  0  0  0  0  0  0
   -1.2430   -0.0744  -10.3120 Si  0  0  0  0  0  4  0  0  0  0  0  0
   -4.3340    3.0898   -8.5676 Si  0  0  0  0  0  4  0  0  0  0  0  0
   -2.6732    1.3236  -11.3478 Si  0  0  0  0  0  4  0  0  0  0  0  0
   -4.5450    1.5647  -10.1815 Si  0  0  0  0  0  4  0  0  0  0  0  0
   -3.3427    1.5246   -1.4291 F   0  0  0  0  0  0  0  0  0  0  0  0
   -2.8381    2.9353   -3.6975 F   0  0  0  0  0  0  0  0  0  0  0  0
   -0.6890   -1.1636   -4.9986 F   0  0  0  0  0  0  0  0  0  0  0  0
    1.6211   -0.9640   -3.5879 F   0  0  0  0  0  0  0  0  0  0  0  0
    3.0633   -0.2080   -8.0296 F   0  0  0  0  0  0  0  0  0  0  0  0
    0.7430   -1.5224   -7.5248 F   0  0  0  0  0  0  0  0  0  0  0  0
    0.0190    2.6151   -8.9807 F   0  0  0  0  0  0  0  0  0  0  0  0
    1.6206    1.2470  -10.6923 F   0  0  0  0  0  0  0  0  0  0  0  0
   -2.9621   -1.6648   -3.9569 F   0  0  0  0  0  0  0  0  0  0  0  0
   -5.2702   -0.3083   -3.4946 F   0  0  0  0  0  0  0  0  0  0  0  0
   -1.9323    2.8108  -11.6543 F   0  0  0  0  0  0  0  0  0  0  0  0
   -3.1005    0.6835  -12.8706 F   0  0  0  0  0  0  0  0  0  0  0  0
   -4.9925    0.0663   -9.5776 F   0  0  0  0  0  0  0  0  0  0  0  0
   -5.7609    2.1084  -11.2444 F   0  0  0  0  0  0  0  0  0  0  0  0
   -5.3297    4.4368   -8.8611 F   0  0  0  0  0  0  0  0  0  0  0  0
   -2.7546    3.6665   -8.4768 F   0  0  0  0  0  0  0  0  0  0  0  0
    2.7291    1.7612   -5.3281 F   0  0  0  0  0  0  0  0  0  0  0  0
    0.1976    2.5419   -6.0988 F   0  0  0  0  0  0  0  0  0  0  0  0
   -4.4079   -0.8802   -7.1402 F   0  0  0  0  0  0  0  0  0  0  0  0
   -2.2041    0.7390   -6.7657 F   0  0  0  0  0  0  0  0  0  0  0  0
   -2.0418   -1.0123   -9.1961 F   0  0  0  0  0  0  0  0  0  0  0  0
   -0.6186   -1.1224  -11.5045 F   0  0  0  0  0  0  0  0  0  0  0  0
   -6.6044    1.8581   -6.6883 F   0  0  0  0  0  0  0  0  0  0  0  0
   -4.7073    3.3807   -5.4068 F   0  0  0  0  0  0  0  0  0  0  0  0
  1  2  1  0
  1  3  1  0
  2  7  1  0
  2 14  1  0
  2 15  1  0
  3  4  1  0
  3 16  1  0
  3 17  1  0
  4  5  1  0
  4 30  1  0
  4 31  1  0
  5  8  1  0
  5 18  1  0
  5 19  1  0
  6  7  1  0
  6  9  1  0
  6 32  1  0
  6 33  1  0
  7 22  1  0
  7 23  1  0
  8 10  1  0
  8 20  1  0
  8 21  1  0
  9 11  1  0
  9 36  1  0
  9 37  1  0
 10 12  1  0
 10 34  1  0
 10 35  1  0
 11 13  1  0
 11 28  1  0
 11 29  1  0
 12 13  1  0
 12 24  1  0
 12 25  1  0
 13 26  1  0
 13 27  1  0
M  CHG  1   1   1
M  RAD  1   1   2
M  END
$$$$
