
     RDKit          3D

 37 37  0  0  0  0  0  0  0  0999 V2000
    0.3454    0.2303   -4.1478 S   0  0  0  0  0  2  0  0  0  0  0  0
    2.2525   -0.5268   -4.8144 Si  0  0  0  0  0  4  0  0  0  0  0  0
   -0.5147    1.5250   -5.6207 Si  0  0  0  0  0  4  0  0  0  0  0  0
   -0.7732    0.4803   -7.5791 Si  0  0  0  0  0  4  0  0  0  0  0  0
    0.2161    1.7049   -9.1547 Si  0  0  0  0  0  4  0  0  0  0  0  0
    5.6315    0.6695   -5.7311 Si  0  0  0  0  0  4  0  0  0  0  0  0
    3.6647    1.1681   -4.9267 Si  0  0  0  0  0  4  0  0  0  0  0  0
    0.5429    0.5611  -11.0243 Si  0  0  0  0  0  4  0  0  0  0  0  0
    5.7696   -1.2806   -6.7379 Si  0  0  0  0  0  4  0  0  0  0  0  0
    2.0498   -1.0278  -10.8196 Si  0  0  0  0  0  4  0  0  0  0  0  0
    6.4977   -1.0622   -8.8621 Si  0  0  0  0  0  4  0  0  0  0  0  0
    4.0594   -0.4117  -11.5510 Si  0  0  0  0  0  4  0  0  0  0  0  0
    5.3104    0.4631   -9.9546 Si  0  0  0  0  0  4  0  0  0  0  0  0
    1.9976   -1.2774   -6.2749 F   0  0  0  0  0  0  0  0  0  0  0  0
    2.7714   -1.6311   -3.6287 F   0  0  0  0  0  0  0  0  0  0  0  0
    0.4335    2.9244   -5.7959 F   0  0  0  0  0  0  0  0  0  0  0  0
   -2.0177    2.0222   -5.0563 F   0  0  0  0  0  0  0  0  0  0  0  0
    1.6190    2.3731   -8.5517 F   0  0  0  0  0  0  0  0  0  0  0  0
   -0.8385    2.9950   -9.5213 F   0  0  0  0  0  0  0  0  0  0  0  0
   -0.9523   -0.1066  -11.4899 F   0  0  0  0  0  0  0  0  0  0  0  0
    1.0034    1.6435  -12.2327 F   0  0  0  0  0  0  0  0  0  0  0  0
    3.8015    1.8231   -3.3546 F   0  0  0  0  0  0  0  0  0  0  0  0
    2.9290    2.3996   -5.8523 F   0  0  0  0  0  0  0  0  0  0  0  0
    4.8477   -1.8098  -12.1313 F   0  0  0  0  0  0  0  0  0  0  0  0
    3.8561    0.6209  -12.8622 F   0  0  0  0  0  0  0  0  0  0  0  0
    6.3949    1.5603  -10.6849 F   0  0  0  0  0  0  0  0  0  0  0  0
    4.4224    1.3424   -8.8315 F   0  0  0  0  0  0  0  0  0  0  0  0
    6.3716   -2.5689   -9.5996 F   0  0  0  0  0  0  0  0  0  0  0  0
    8.1408   -0.6112   -8.8076 F   0  0  0  0  0  0  0  0  0  0  0  0
   -2.4322    0.4068   -7.9736 F   0  0  0  0  0  0  0  0  0  0  0  0
   -0.2100   -1.0895   -7.5382 F   0  0  0  0  0  0  0  0  0  0  0  0
    6.0967    1.8782   -6.8438 F   0  0  0  0  0  0  0  0  0  0  0  0
    6.7827    0.7495   -4.4727 F   0  0  0  0  0  0  0  0  0  0  0  0
    2.2171   -1.5963   -9.2497 F   0  0  0  0  0  0  0  0  0  0  0  0
    1.5528   -2.3575  -11.7688 F   0  0  0  0  0  0  0  0  0  0  0  0
    6.9314   -2.2599   -5.9589 F   0  0  0  0  0  0  0  0  0  0  0  0
    4.3462   -2.1332   -6.7796 F   0  0  0  0  0  0  0  0  0  0  0  0
  1  2  1  0
  1  3  1  0
  2  7  1  0
  2 14  1  0
  2 15  1  0
  3  4  1  0
  3 16  1  0
  3 17  1  0
  4  5  1  0
  4 30  1  0
  4 31  1  0
  5  8  1  0
  5 18  1  0
  5 19  1  0
  6  7  1  0
  6  9  1  0
  6 32  1  0
  6 33  1  0
  7 22  1  0
  7 23  1  0
  8 10  1  0
  8 20  1  0
  8 21  1  0
  9 11  1  0
  9 36  1  0
  9 37  1  0
 10 12  1  0
 10 34  1  0
 10 35  1  0
 11 13  1  0
 11 28  1  0
 11 29  1  0
 12 13  1  0
 12 24  1  0
 12 25  1  0
 13 26  1  0
 13 27  1  0
M  CHG  1   1   1
M  RAD  1   1   2
M  END
$$$$
