
     RDKit          3D

 37 37  0  0  0  0  0  0  0  0999 V2000
    2.0795    0.1912    2.9606 S   0  0  0  0  0  2  0  0  0  0  0  0
    3.4322    1.4736    3.8973 Si  0  0  0  0  0  4  0  0  0  0  0  0
    2.1053   -1.8251    3.5702 Si  0  0  0  0  0  4  0  0  0  0  0  0
    3.7494   -2.4180    4.8580 Si  0  0  0  0  0  4  0  0  0  0  0  0
    3.3590   -2.2677    7.0300 Si  0  0  0  0  0  4  0  0  0  0  0  0
    1.3085    3.9278    5.6714 Si  0  0  0  0  0  4  0  0  0  0  0  0
    2.7048    3.6040    3.9709 Si  0  0  0  0  0  4  0  0  0  0  0  0
    2.1337   -3.9015    7.8396 Si  0  0  0  0  0  4  0  0  0  0  0  0
   -0.0451    2.2024    5.9900 Si  0  0  0  0  0  4  0  0  0  0  0  0
    0.0048   -3.3257    8.1643 Si  0  0  0  0  0  4  0  0  0  0  0  0
   -0.6980    2.0056    8.1209 Si  0  0  0  0  0  4  0  0  0  0  0  0
   -0.2140   -1.4544    9.3180 Si  0  0  0  0  0  4  0  0  0  0  0  0
   -1.6271   -0.0324    8.3249 Si  0  0  0  0  0  4  0  0  0  0  0  0
    4.8790    1.5148    2.9878 F   0  0  0  0  0  0  0  0  0  0  0  0
    3.8592    1.0577    5.4514 F   0  0  0  0  0  0  0  0  0  0  0  0
    0.6234   -2.1498    4.3540 F   0  0  0  0  0  0  0  0  0  0  0  0
    2.0980   -2.8053    2.1718 F   0  0  0  0  0  0  0  0  0  0  0  0
    4.8769   -2.2992    7.7947 F   0  0  0  0  0  0  0  0  0  0  0  0
    2.6490   -0.8098    7.4633 F   0  0  0  0  0  0  0  0  0  0  0  0
    2.7449   -4.3782    9.3445 F   0  0  0  0  0  0  0  0  0  0  0  0
    2.1457   -5.2711    6.8530 F   0  0  0  0  0  0  0  0  0  0  0  0
    4.0773    4.5684    4.2457 F   0  0  0  0  0  0  0  0  0  0  0  0
    2.0232    3.9899    2.5029 F   0  0  0  0  0  0  0  0  0  0  0  0
    1.2546   -0.6777    9.5940 F   0  0  0  0  0  0  0  0  0  0  0  0
   -0.8516   -1.7719   10.8724 F   0  0  0  0  0  0  0  0  0  0  0  0
   -3.0688    0.1086    9.1888 F   0  0  0  0  0  0  0  0  0  0  0  0
   -2.0131   -0.6722    6.8134 F   0  0  0  0  0  0  0  0  0  0  0  0
   -1.7780    3.2150    8.5202 F   0  0  0  0  0  0  0  0  0  0  0  0
    0.6533    2.0300    9.1273 F   0  0  0  0  0  0  0  0  0  0  0  0
    5.1280   -1.4808    4.5059 F   0  0  0  0  0  0  0  0  0  0  0  0
    4.1891   -4.0276    4.5199 F   0  0  0  0  0  0  0  0  0  0  0  0
    0.3380    5.2715    5.2606 F   0  0  0  0  0  0  0  0  0  0  0  0
    2.1326    4.3556    7.0846 F   0  0  0  0  0  0  0  0  0  0  0  0
   -0.8556   -3.2694    6.7115 F   0  0  0  0  0  0  0  0  0  0  0  0
   -0.7012   -4.5981    9.0622 F   0  0  0  0  0  0  0  0  0  0  0  0
    0.8679    0.8167    5.6790 F   0  0  0  0  0  0  0  0  0  0  0  0
   -1.4092    2.2794    5.0039 F   0  0  0  0  0  0  0  0  0  0  0  0
  1  2  1  0
  1  3  1  0
  2  7  1  0
  2 14  1  0
  2 15  1  0
  3  4  1  0
  3 16  1  0
  3 17  1  0
  4  5  1  0
  4 30  1  0
  4 31  1  0
  5  8  1  0
  5 18  1  0
  5 19  1  0
  6  7  1  0
  6  9  1  0
  6 32  1  0
  6 33  1  0
  7 22  1  0
  7 23  1  0
  8 10  1  0
  8 20  1  0
  8 21  1  0
  9 11  1  0
  9 36  1  0
  9 37  1  0
 10 12  1  0
 10 34  1  0
 10 35  1  0
 11 13  1  0
 11 28  1  0
 11 29  1  0
 12 13  1  0
 12 24  1  0
 12 25  1  0
 13 26  1  0
 13 27  1  0
M  CHG  1   1   1
M  RAD  1   1   2
M  END
$$$$

     RDKit          3D

 37 37  0  0  0  0  0  0  0  0999 V2000
    2.0795    0.1912    2.9606 S   0  0  0  0  0  2  0  0  0  0  0  0
    3.3919    1.5159    3.8894 Si  0  0  0  0  0  4  0  0  0  0  0  0
    2.0374   -1.7877    3.5750 Si  0  0  0  0  0  4  0  0  0  0  0  0
    0.3527   -2.2480    4.9992 Si  0  0  0  0  0  4  0  0  0  0  0  0
    0.7440   -1.3153    6.9893 Si  0  0  0  0  0  4  0  0  0  0  0  0
    5.7683    1.0725    6.6325 Si  0  0  0  0  0  4  0  0  0  0  0  0
    5.3620    0.7459    4.4415 Si  0  0  0  0  0  4  0  0  0  0  0  0
   -1.0151   -0.1100    7.5676 Si  0  0  0  0  0  4  0  0  0  0  0  0
    5.0949    3.0956    7.2575 Si  0  0  0  0  0  4  0  0  0  0  0  0
   -0.4570    1.5185    9.0226 Si  0  0  0  0  0  4  0  0  0  0  0  0
    3.5581    2.9802    8.8869 Si  0  0  0  0  0  4  0  0  0  0  0  0
    0.0047    3.3685    7.9200 Si  0  0  0  0  0  4  0  0  0  0  0  0
    1.8753    4.3427    8.5264 Si  0  0  0  0  0  4  0  0  0  0  0  0
    3.6167    2.8482    2.8362 F   0  0  0  0  0  0  0  0  0  0  0  0
    2.6509    2.1833    5.2675 F   0  0  0  0  0  0  0  0  0  0  0  0
    1.7403   -2.7715    2.2150 F   0  0  0  0  0  0  0  0  0  0  0  0
    3.4462   -2.3616    4.2792 F   0  0  0  0  0  0  0  0  0  0  0  0
    2.0820   -0.3292    6.8442 F   0  0  0  0  0  0  0  0  0  0  0  0
    1.1073   -2.4988    8.1522 F   0  0  0  0  0  0  0  0  0  0  0  0
   -1.6825    0.6076    6.1896 F   0  0  0  0  0  0  0  0  0  0  0  0
   -2.1862   -1.1200    8.2543 F   0  0  0  0  0  0  0  0  0  0  0  0
    6.6195    1.5619    3.6214 F   0  0  0  0  0  0  0  0  0  0  0  0
    5.5784   -0.8866    4.1243 F   0  0  0  0  0  0  0  0  0  0  0  0
   -1.2704    4.4769    8.1815 F   0  0  0  0  0  0  0  0  0  0  0  0
   -0.0453    3.0699    6.2392 F   0  0  0  0  0  0  0  0  0  0  0  0
    2.3336    5.4393    7.3004 F   0  0  0  0  0  0  0  0  0  0  0  0
    1.5618    5.3071    9.8992 F   0  0  0  0  0  0  0  0  0  0  0  0
    3.1269    1.3859    9.0732 F   0  0  0  0  0  0  0  0  0  0  0  0
    4.3425    3.4657   10.3237 F   0  0  0  0  0  0  0  0  0  0  0  0
   -1.1219   -1.7848    4.3669 F   0  0  0  0  0  0  0  0  0  0  0  0
    0.3316   -3.9240    5.2097 F   0  0  0  0  0  0  0  0  0  0  0  0
    4.9997   -0.0748    7.5647 F   0  0  0  0  0  0  0  0  0  0  0  0
    7.4380    0.8771    6.8457 F   0  0  0  0  0  0  0  0  0  0  0  0
    0.7893    1.0044   10.0184 F   0  0  0  0  0  0  0  0  0  0  0  0
   -1.8285    1.7212   10.0207 F   0  0  0  0  0  0  0  0  0  0  0  0
    6.4436    3.9775    7.7523 F   0  0  0  0  0  0  0  0  0  0  0  0
    4.4440    3.9116    5.9179 F   0  0  0  0  0  0  0  0  0  0  0  0
  1  2  1  0
  1  3  1  0
  2  7  1  0
  2 14  1  0
  2 15  1  0
  3  4  1  0
  3 16  1  0
  3 17  1  0
  4  5  1  0
  4 30  1  0
  4 31  1  0
  5  8  1  0
  5 18  1  0
  5 19  1  0
  6  7  1  0
  6  9  1  0
  6 32  1  0
  6 33  1  0
  7 22  1  0
  7 23  1  0
  8 10  1  0
  8 20  1  0
  8 21  1  0
  9 11  1  0
  9 36  1  0
  9 37  1  0
 10 12  1  0
 10 34  1  0
 10 35  1  0
 11 13  1  0
 11 28  1  0
 11 29  1  0
 12 13  1  0
 12 24  1  0
 12 25  1  0
 13 26  1  0
 13 27  1  0
M  CHG  1   1   1
M  RAD  1   1   2
M  END
$$$$

     RDKit          3D

 37 37  0  0  0  0  0  0  0  0999 V2000
    2.0795    0.1912    2.9606 S   0  0  0  0  0  2  0  0  0  0  0  0
    2.6567   -0.4615    4.8923 Si  0  0  0  0  0  4  0  0  0  0  0  0
    2.4784    2.2253    2.5765 Si  0  0  0  0  0  4  0  0  0  0  0  0
    2.6221    3.4668    4.4021 Si  0  0  0  0  0  4  0  0  0  0  0  0
    4.6260    3.4972    5.3052 Si  0  0  0  0  0  4  0  0  0  0  0  0
    2.2481   -4.0687    5.5755 Si  0  0  0  0  0  4  0  0  0  0  0  0
    1.3527   -2.0659    5.6792 Si  0  0  0  0  0  4  0  0  0  0  0  0
    6.0654    2.1163    4.3686 Si  0  0  0  0  0  4  0  0  0  0  0  0
    4.4244   -4.0584    5.1742 Si  0  0  0  0  0  4  0  0  0  0  0  0
    7.0769    0.8316    5.9234 Si  0  0  0  0  0  4  0  0  0  0  0  0
    5.5125   -3.2361    6.9332 Si  0  0  0  0  0  4  0  0  0  0  0  0
    7.8199   -1.0597    5.0468 Si  0  0  0  0  0  4  0  0  0  0  0  0
    7.6271   -2.7481    6.4552 Si  0  0  0  0  0  4  0  0  0  0  0  0
    4.2320   -1.0650    4.7989 F   0  0  0  0  0  0  0  0  0  0  0  0
    2.7095    0.8273    6.0053 F   0  0  0  0  0  0  0  0  0  0  0  0
    3.8638    2.4635    1.6243 F   0  0  0  0  0  0  0  0  0  0  0  0
    1.1800    2.8384    1.6474 F   0  0  0  0  0  0  0  0  0  0  0  0
    5.2580    5.0838    5.3238 F   0  0  0  0  0  0  0  0  0  0  0  0
    4.4739    3.0618    6.9500 F   0  0  0  0  0  0  0  0  0  0  0  0
    7.3143    3.0286    3.6447 F   0  0  0  0  0  0  0  0  0  0  0  0
    5.4086    1.1598    3.1730 F   0  0  0  0  0  0  0  0  0  0  0  0
   -0.1004   -2.0347    4.7837 F   0  0  0  0  0  0  0  0  0  0  0  0
    0.9058   -1.7025    7.2814 F   0  0  0  0  0  0  0  0  0  0  0  0
    9.4337   -0.8914    4.6191 F   0  0  0  0  0  0  0  0  0  0  0  0
    6.9657   -1.3899    3.6070 F   0  0  0  0  0  0  0  0  0  0  0  0
    8.4012   -2.3346    7.8991 F   0  0  0  0  0  0  0  0  0  0  0  0
    8.4046   -4.1124    5.8486 F   0  0  0  0  0  0  0  0  0  0  0  0
    4.7446   -1.9296    7.6222 F   0  0  0  0  0  0  0  0  0  0  0  0
    5.5423   -4.4744    8.1104 F   0  0  0  0  0  0  0  0  0  0  0  0
    2.1892    5.0609    3.9622 F   0  0  0  0  0  0  0  0  0  0  0  0
    1.4329    2.9809    5.5271 F   0  0  0  0  0  0  0  0  0  0  0  0
    2.0022   -4.8696    7.0592 F   0  0  0  0  0  0  0  0  0  0  0  0
    1.4225   -5.0059    4.4118 F   0  0  0  0  0  0  0  0  0  0  0  0
    5.9043    0.5365    7.1214 F   0  0  0  0  0  0  0  0  0  0  0  0
    8.3697    1.6959    6.5431 F   0  0  0  0  0  0  0  0  0  0  0  0
    4.8295   -3.3050    3.7467 F   0  0  0  0  0  0  0  0  0  0  0  0
    4.9148   -5.6894    5.0215 F   0  0  0  0  0  0  0  0  0  0  0  0
  1  2  1  0
  1  3  1  0
  2  7  1  0
  2 14  1  0
  2 15  1  0
  3  4  1  0
  3 16  1  0
  3 17  1  0
  4  5  1  0
  4 30  1  0
  4 31  1  0
  5  8  1  0
  5 18  1  0
  5 19  1  0
  6  7  1  0
  6  9  1  0
  6 32  1  0
  6 33  1  0
  7 22  1  0
  7 23  1  0
  8 10  1  0
  8 20  1  0
  8 21  1  0
  9 11  1  0
  9 36  1  0
  9 37  1  0
 10 12  1  0
 10 34  1  0
 10 35  1  0
 11 13  1  0
 11 28  1  0
 11 29  1  0
 12 13  1  0
 12 24  1  0
 12 25  1  0
 13 26  1  0
 13 27  1  0
M  CHG  1   1   1
M  RAD  1   1   2
M  END
$$$$
