
     RDKit          3D

 37 37  0  0  0  0  0  0  0  0999 V2000
   -0.1935    0.1063   -3.0992 S   0  0  0  0  0  2  0  0  0  0  0  0
    1.0503   -1.2298   -4.1955 Si  0  0  0  0  0  4  0  0  0  0  0  0
   -2.1428    0.3060   -3.9742 Si  0  0  0  0  0  4  0  0  0  0  0  0
   -2.1981    1.8567   -5.5302 Si  0  0  0  0  0  4  0  0  0  0  0  0
   -1.5151    1.2036   -7.5137 Si  0  0  0  0  0  4  0  0  0  0  0  0
    4.5262   -1.5192   -5.4084 Si  0  0  0  0  0  4  0  0  0  0  0  0
    3.1418   -0.4435   -4.0710 Si  0  0  0  0  0  4  0  0  0  0  0  0
   -2.3626   -0.7047   -8.2037 Si  0  0  0  0  0  4  0  0  0  0  0  0
    3.8157   -3.5615   -5.9296 Si  0  0  0  0  0  4  0  0  0  0  0  0
   -0.9242   -1.8157   -9.5259 Si  0  0  0  0  0  4  0  0  0  0  0  0
    2.7331   -3.5741   -7.8921 Si  0  0  0  0  0  4  0  0  0  0  0  0
   -0.8146   -3.9445   -9.0124 Si  0  0  0  0  0  4  0  0  0  0  0  0
    0.7996   -4.5973   -7.7113 Si  0  0  0  0  0  4  0  0  0  0  0  0
    0.5654   -1.4133   -5.7891 F   0  0  0  0  0  0  0  0  0  0  0  0
    1.0375   -2.7262   -3.3898 F   0  0  0  0  0  0  0  0  0  0  0  0
   -3.1701    0.8266   -2.7084 F   0  0  0  0  0  0  0  0  0  0  0  0
   -2.7322   -1.1747   -4.4651 F   0  0  0  0  0  0  0  0  0  0  0  0
    0.1797    1.0661   -7.4970 F   0  0  0  0  0  0  0  0  0  0  0  0
   -1.8753    2.4180   -8.6306 F   0  0  0  0  0  0  0  0  0  0  0  0
   -3.8073   -0.3789   -9.0414 F   0  0  0  0  0  0  0  0  0  0  0  0
   -2.7680   -1.7480   -6.9494 F   0  0  0  0  0  0  0  0  0  0  0  0
    3.6506   -0.5828   -2.4778 F   0  0  0  0  0  0  0  0  0  0  0  0
    3.0679    1.2119   -4.4419 F   0  0  0  0  0  0  0  0  0  0  0  0
   -0.7949   -4.8452  -10.4479 F   0  0  0  0  0  0  0  0  0  0  0  0
   -2.3074   -4.3530   -8.2805 F   0  0  0  0  0  0  0  0  0  0  0  0
    0.3092   -4.4688   -6.0870 F   0  0  0  0  0  0  0  0  0  0  0  0
    1.0729   -6.2542   -7.9362 F   0  0  0  0  0  0  0  0  0  0  0  0
    3.7111   -4.4285   -9.0028 F   0  0  0  0  0  0  0  0  0  0  0  0
    2.6564   -2.0098   -8.4219 F   0  0  0  0  0  0  0  0  0  0  0  0
   -1.2300    3.1532   -5.0360 F   0  0  0  0  0  0  0  0  0  0  0  0
   -3.7796    2.4753   -5.6771 F   0  0  0  0  0  0  0  0  0  0  0  0
    4.6362   -0.6401   -6.8676 F   0  0  0  0  0  0  0  0  0  0  0  0
    6.0770   -1.5404   -4.7436 F   0  0  0  0  0  0  0  0  0  0  0  0
   -1.4676   -1.6059  -11.1166 F   0  0  0  0  0  0  0  0  0  0  0  0
    0.5417   -1.0083   -9.4354 F   0  0  0  0  0  0  0  0  0  0  0  0
    5.1693   -4.5768   -5.9785 F   0  0  0  0  0  0  0  0  0  0  0  0
    2.8163   -4.1510   -4.6927 F   0  0  0  0  0  0  0  0  0  0  0  0
  1  2  1  0
  1  3  1  0
  2  7  1  0
  2 14  1  0
  2 15  1  0
  3  4  1  0
  3 16  1  0
  3 17  1  0
  4  5  1  0
  4 30  1  0
  4 31  1  0
  5  8  1  0
  5 18  1  0
  5 19  1  0
  6  7  1  0
  6  9  1  0
  6 32  1  0
  6 33  1  0
  7 22  1  0
  7 23  1  0
  8 10  1  0
  8 20  1  0
  8 21  1  0
  9 11  1  0
  9 36  1  0
  9 37  1  0
 10 12  1  0
 10 34  1  0
 10 35  1  0
 11 13  1  0
 11 28  1  0
 11 29  1  0
 12 13  1  0
 12 24  1  0
 12 25  1  0
 13 26  1  0
 13 27  1  0
M  CHG  1   1   1
M  RAD  1   1   2
M  END
$$$$

     RDKit          3D

 37 37  0  0  0  0  0  0  0  0999 V2000
   -0.1935    0.1063   -3.0992 S   0  0  0  0  0  2  0  0  0  0  0  0
    0.9306   -0.9884   -4.5240 Si  0  0  0  0  0  4  0  0  0  0  0  0
   -1.0695    1.8828   -3.9363 Si  0  0  0  0  0  4  0  0  0  0  0  0
   -2.3010    1.2584   -5.6970 Si  0  0  0  0  0  4  0  0  0  0  0  0
   -2.4301    2.8116   -7.2670 Si  0  0  0  0  0  4  0  0  0  0  0  0
   -1.9622   -3.3076   -4.6087 Si  0  0  0  0  0  4  0  0  0  0  0  0
    0.2142   -3.0938   -4.7669 Si  0  0  0  0  0  4  0  0  0  0  0  0
   -2.2777    1.7983   -9.2806 Si  0  0  0  0  0  4  0  0  0  0  0  0
   -3.0578   -3.2459   -6.5401 Si  0  0  0  0  0  4  0  0  0  0  0  0
   -4.2032    1.0618  -10.0030 Si  0  0  0  0  0  4  0  0  0  0  0  0
   -1.7498   -3.1581   -8.3049 Si  0  0  0  0  0  4  0  0  0  0  0  0
   -4.4571   -1.1564   -9.9144 Si  0  0  0  0  0  4  0  0  0  0  0  0
   -2.6068   -2.2923  -10.1120 Si  0  0  0  0  0  4  0  0  0  0  0  0
    1.0365   -0.2050   -6.0124 F   0  0  0  0  0  0  0  0  0  0  0  0
    2.5364   -1.0835   -3.9423 F   0  0  0  0  0  0  0  0  0  0  0  0
   -2.1255    2.5224   -2.7870 F   0  0  0  0  0  0  0  0  0  0  0  0
    0.0694    3.0239   -4.3380 F   0  0  0  0  0  0  0  0  0  0  0  0
   -1.1692    3.8974   -7.0815 F   0  0  0  0  0  0  0  0  0  0  0  0
   -3.9176    3.6231   -7.2050 F   0  0  0  0  0  0  0  0  0  0  0  0
   -1.2002    0.5237   -9.0850 F   0  0  0  0  0  0  0  0  0  0  0  0
   -1.5557    2.9146  -10.3197 F   0  0  0  0  0  0  0  0  0  0  0  0
    0.9193   -3.9792   -3.4814 F   0  0  0  0  0  0  0  0  0  0  0  0
    0.8472   -3.7685   -6.1738 F   0  0  0  0  0  0  0  0  0  0  0  0
   -5.4588   -1.5127  -11.2658 F   0  0  0  0  0  0  0  0  0  0  0  0
   -5.4045   -1.5963   -8.5912 F   0  0  0  0  0  0  0  0  0  0  0  0
   -1.4626   -1.2664  -10.8719 F   0  0  0  0  0  0  0  0  0  0  0  0
   -2.8227   -3.5524  -11.2559 F   0  0  0  0  0  0  0  0  0  0  0  0
   -1.2153   -4.7630   -8.5893 F   0  0  0  0  0  0  0  0  0  0  0  0
   -0.3115   -2.3197   -7.9147 F   0  0  0  0  0  0  0  0  0  0  0  0
   -3.8470    0.8450   -5.1776 F   0  0  0  0  0  0  0  0  0  0  0  0
   -1.4788   -0.0545   -6.3621 F   0  0  0  0  0  0  0  0  0  0  0  0
   -2.5363   -2.1470   -3.5071 F   0  0  0  0  0  0  0  0  0  0  0  0
   -2.3031   -4.8163   -3.8829 F   0  0  0  0  0  0  0  0  0  0  0  0
   -5.4868    1.7380   -9.1007 F   0  0  0  0  0  0  0  0  0  0  0  0
   -4.4306    1.6490  -11.5913 F   0  0  0  0  0  0  0  0  0  0  0  0
   -4.1517   -4.5502   -6.6750 F   0  0  0  0  0  0  0  0  0  0  0  0
   -4.0352   -1.8462   -6.4845 F   0  0  0  0  0  0  0  0  0  0  0  0
  1  2  1  0
  1  3  1  0
  2  7  1  0
  2 14  1  0
  2 15  1  0
  3  4  1  0
  3 16  1  0
  3 17  1  0
  4  5  1  0
  4 30  1  0
  4 31  1  0
  5  8  1  0
  5 18  1  0
  5 19  1  0
  6  7  1  0
  6  9  1  0
  6 32  1  0
  6 33  1  0
  7 22  1  0
  7 23  1  0
  8 10  1  0
  8 20  1  0
  8 21  1  0
  9 11  1  0
  9 36  1  0
  9 37  1  0
 10 12  1  0
 10 34  1  0
 10 35  1  0
 11 13  1  0
 11 28  1  0
 11 29  1  0
 12 13  1  0
 12 24  1  0
 12 25  1  0
 13 26  1  0
 13 27  1  0
M  CHG  1   1   1
M  RAD  1   1   2
M  END
$$$$

     RDKit          3D

 37 37  0  0  0  0  0  0  0  0999 V2000
   -0.1935    0.1063   -3.0992 S   0  0  0  0  0  2  0  0  0  0  0  0
   -1.4565   -1.2902   -4.0934 Si  0  0  0  0  0  4  0  0  0  0  0  0
   -0.2758    2.0563   -3.9914 Si  0  0  0  0  0  4  0  0  0  0  0  0
    1.1444    2.2675   -5.6548 Si  0  0  0  0  0  4  0  0  0  0  0  0
    0.4326    1.4950   -7.5845 Si  0  0  0  0  0  4  0  0  0  0  0  0
   -1.4407   -4.7893   -5.2733 Si  0  0  0  0  0  4  0  0  0  0  0  0
   -0.4343   -3.2796   -4.0203 Si  0  0  0  0  0  4  0  0  0  0  0  0
   -1.6028    2.1172   -8.1380 Si  0  0  0  0  0  4  0  0  0  0  0  0
   -3.5815   -4.3164   -5.6483 Si  0  0  0  0  0  4  0  0  0  0  0  0
   -2.6371    0.5501   -9.3731 Si  0  0  0  0  0  4  0  0  0  0  0  0
   -3.8546   -3.2628   -7.6077 Si  0  0  0  0  0  4  0  0  0  0  0  0
   -4.6984    0.2094   -8.7078 Si  0  0  0  0  0  4  0  0  0  0  0  0
   -5.0722   -1.4535   -7.3589 Si  0  0  0  0  0  4  0  0  0  0  0  0
   -1.8059   -0.8457   -5.6711 F   0  0  0  0  0  0  0  0  0  0  0  0
   -2.8839   -1.4356   -3.1824 F   0  0  0  0  0  0  0  0  0  0  0  0
    0.2152    3.1486   -2.7689 F   0  0  0  0  0  0  0  0  0  0  0  0
   -1.8443    2.4719   -4.3762 F   0  0  0  0  0  0  0  0  0  0  0  0
    0.4871   -0.2043   -7.5536 F   0  0  0  0  0  0  0  0  0  0  0  0
    1.5165    1.9763   -8.7867 F   0  0  0  0  0  0  0  0  0  0  0  0
   -1.5011    3.5802   -9.0006 F   0  0  0  0  0  0  0  0  0  0  0  0
   -2.5932    2.4172   -6.8130 F   0  0  0  0  0  0  0  0  0  0  0  0
   -0.4022   -3.7838   -2.4199 F   0  0  0  0  0  0  0  0  0  0  0  0
    1.1718   -3.0257   -4.5093 F   0  0  0  0  0  0  0  0  0  0  0  0
   -5.6909    0.0742  -10.0748 F   0  0  0  0  0  0  0  0  0  0  0  0
   -5.2182    1.6551   -7.9524 F   0  0  0  0  0  0  0  0  0  0  0  0
   -4.8843   -0.9346   -5.7494 F   0  0  0  0  0  0  0  0  0  0  0  0
   -6.7000   -1.9122   -7.4636 F   0  0  0  0  0  0  0  0  0  0  0  0
   -4.6710   -4.3417   -8.6516 F   0  0  0  0  0  0  0  0  0  0  0  0
   -2.3504   -3.0180   -8.2487 F   0  0  0  0  0  0  0  0  0  0  0  0
    2.5729    1.4552   -5.2525 F   0  0  0  0  0  0  0  0  0  0  0  0
    1.5702    3.9065   -5.8499 F   0  0  0  0  0  0  0  0  0  0  0  0
   -0.6607   -4.8162   -6.7917 F   0  0  0  0  0  0  0  0  0  0  0  0
   -1.2409   -6.3257   -4.6047 F   0  0  0  0  0  0  0  0  0  0  0  0
   -2.6029    1.0965  -10.9762 F   0  0  0  0  0  0  0  0  0  0  0  0
   -1.6663   -0.8157   -9.3371 F   0  0  0  0  0  0  0  0  0  0  0  0
   -4.4399   -5.7751   -5.6207 F   0  0  0  0  0  0  0  0  0  0  0  0
   -4.1897   -3.3758   -4.3750 F   0  0  0  0  0  0  0  0  0  0  0  0
  1  2  1  0
  1  3  1  0
  2  7  1  0
  2 14  1  0
  2 15  1  0
  3  4  1  0
  3 16  1  0
  3 17  1  0
  4  5  1  0
  4 30  1  0
  4 31  1  0
  5  8  1  0
  5 18  1  0
  5 19  1  0
  6  7  1  0
  6  9  1  0
  6 32  1  0
  6 33  1  0
  7 22  1  0
  7 23  1  0
  8 10  1  0
  8 20  1  0
  8 21  1  0
  9 11  1  0
  9 36  1  0
  9 37  1  0
 10 12  1  0
 10 34  1  0
 10 35  1  0
 11 13  1  0
 11 28  1  0
 11 29  1  0
 12 13  1  0
 12 24  1  0
 12 25  1  0
 13 26  1  0
 13 27  1  0
M  CHG  1   1   1
M  RAD  1   1   2
M  END
$$$$

     RDKit          3D

 37 37  0  0  0  0  0  0  0  0999 V2000
   -0.1935    0.1063   -3.0992 S   0  0  0  0  0  2  0  0  0  0  0  0
   -0.1385    1.7913   -4.3353 Si  0  0  0  0  0  4  0  0  0  0  0  0
    1.0687   -1.4906   -3.6361 Si  0  0  0  0  0  4  0  0  0  0  0  0
   -0.1941   -3.3771   -3.6189 Si  0  0  0  0  0  4  0  0  0  0  0  0
   -2.1243   -2.7163   -4.4704 Si  0  0  0  0  0  4  0  0  0  0  0  0
   -2.9506    1.3359   -6.6395 Si  0  0  0  0  0  4  0  0  0  0  0  0
   -0.7537    1.4508   -6.4292 Si  0  0  0  0  0  4  0  0  0  0  0  0
   -3.5972   -4.3022   -4.8208 Si  0  0  0  0  0  4  0  0  0  0  0  0
   -3.6000    0.6454   -8.6391 Si  0  0  0  0  0  4  0  0  0  0  0  0
   -5.4531   -3.2858   -5.5089 Si  0  0  0  0  0  4  0  0  0  0  0  0
   -2.7224   -1.2204   -9.3262 Si  0  0  0  0  0  4  0  0  0  0  0  0
   -5.5767   -2.9641   -7.6805 Si  0  0  0  0  0  4  0  0  0  0  0  0
   -3.6932   -3.0882   -8.7724 Si  0  0  0  0  0  4  0  0  0  0  0  0
   -1.1865    2.9689   -3.6785 F   0  0  0  0  0  0  0  0  0  0  0  0
    1.4127    2.5036   -4.2940 F   0  0  0  0  0  0  0  0  0  0  0  0
    2.3193   -1.7412   -2.5160 F   0  0  0  0  0  0  0  0  0  0  0  0
    1.7797   -1.3166   -5.1418 F   0  0  0  0  0  0  0  0  0  0  0  0
   -2.8047   -1.6084   -3.3619 F   0  0  0  0  0  0  0  0  0  0  0  0
   -1.7806   -1.9770   -5.9372 F   0  0  0  0  0  0  0  0  0  0  0  0
   -3.9554   -5.0236   -3.3129 F   0  0  0  0  0  0  0  0  0  0  0  0
   -3.0946   -5.5170   -5.8269 F   0  0  0  0  0  0  0  0  0  0  0  0
    0.0604    0.1253   -7.0156 F   0  0  0  0  0  0  0  0  0  0  0  0
   -0.2262    2.7965   -7.3405 F   0  0  0  0  0  0  0  0  0  0  0  0
   -6.6719   -4.1478   -8.2701 F   0  0  0  0  0  0  0  0  0  0  0  0
   -6.4015   -1.4916   -7.9504 F   0  0  0  0  0  0  0  0  0  0  0  0
   -3.9601   -4.0144  -10.1951 F   0  0  0  0  0  0  0  0  0  0  0  0
   -2.6299   -4.0893   -7.8755 F   0  0  0  0  0  0  0  0  0  0  0  0
   -1.0939   -1.2679   -8.7976 F   0  0  0  0  0  0  0  0  0  0  0  0
   -2.5653   -1.1184  -11.0341 F   0  0  0  0  0  0  0  0  0  0  0  0
    0.5101   -4.5429   -4.5965 F   0  0  0  0  0  0  0  0  0  0  0  0
   -0.3801   -3.9122   -2.0293 F   0  0  0  0  0  0  0  0  0  0  0  0
   -3.6336    0.4160   -5.4029 F   0  0  0  0  0  0  0  0  0  0  0  0
   -3.5619    2.9195   -6.4345 F   0  0  0  0  0  0  0  0  0  0  0  0
   -6.7780   -4.1875   -4.9185 F   0  0  0  0  0  0  0  0  0  0  0  0
   -5.5643   -1.7752   -4.7186 F   0  0  0  0  0  0  0  0  0  0  0  0
   -3.1430    1.9000   -9.7182 F   0  0  0  0  0  0  0  0  0  0  0  0
   -5.2951    0.6732   -8.6702 F   0  0  0  0  0  0  0  0  0  0  0  0
  1  2  1  0
  1  3  1  0
  2  7  1  0
  2 14  1  0
  2 15  1  0
  3  4  1  0
  3 16  1  0
  3 17  1  0
  4  5  1  0
  4 30  1  0
  4 31  1  0
  5  8  1  0
  5 18  1  0
  5 19  1  0
  6  7  1  0
  6  9  1  0
  6 32  1  0
  6 33  1  0
  7 22  1  0
  7 23  1  0
  8 10  1  0
  8 20  1  0
  8 21  1  0
  9 11  1  0
  9 36  1  0
  9 37  1  0
 10 12  1  0
 10 34  1  0
 10 35  1  0
 11 13  1  0
 11 28  1  0
 11 29  1  0
 12 13  1  0
 12 24  1  0
 12 25  1  0
 13 26  1  0
 13 27  1  0
M  CHG  1   1   1
M  RAD  1   1   2
M  END
$$$$

     RDKit          3D

 37 37  0  0  0  0  0  0  0  0999 V2000
   -0.1935    0.1063   -3.0992 S   0  0  0  0  0  2  0  0  0  0  0  0
    1.3822   -0.0329   -4.5098 Si  0  0  0  0  0  4  0  0  0  0  0  0
   -1.9591    1.0104   -3.9294 Si  0  0  0  0  0  4  0  0  0  0  0  0
   -2.5345   -0.1765   -5.7368 Si  0  0  0  0  0  4  0  0  0  0  0  0
   -3.5625    1.0281   -7.2815 Si  0  0  0  0  0  4  0  0  0  0  0  0
    0.4989   -3.6285   -4.7219 Si  0  0  0  0  0  4  0  0  0  0  0  0
    2.0977   -2.1309   -4.8120 Si  0  0  0  0  0  4  0  0  0  0  0  0
   -2.8001    0.3820   -9.3078 Si  0  0  0  0  0  4  0  0  0  0  0  0
   -0.3841   -4.1830   -6.6835 Si  0  0  0  0  0  4  0  0  0  0  0  0
   -3.8709   -1.3494  -10.1000 Si  0  0  0  0  0  4  0  0  0  0  0  0
    0.6224   -3.2612   -8.4070 Si  0  0  0  0  0  4  0  0  0  0  0  0
   -2.7239   -3.2665  -10.0592 Si  0  0  0  0  0  4  0  0  0  0  0  0
   -0.5621   -3.0367  -10.2226 Si  0  0  0  0  0  4  0  0  0  0  0  0
    1.0080    0.7012   -5.9800 F   0  0  0  0  0  0  0  0  0  0  0  0
    2.7071    0.8489   -3.8827 F   0  0  0  0  0  0  0  0  0  0  0  0
   -3.2005    0.8388   -2.8004 F   0  0  0  0  0  0  0  0  0  0  0  0
   -1.7446    2.6210   -4.2765 F   0  0  0  0  0  0  0  0  0  0  0  0
   -3.2249    2.6500   -7.0392 F   0  0  0  0  0  0  0  0  0  0  0  0
   -5.2374    0.7658   -7.2488 F   0  0  0  0  0  0  0  0  0  0  0  0
   -1.1720    0.0193   -9.1035 F   0  0  0  0  0  0  0  0  0  0  0  0
   -2.8934    1.7402  -10.3046 F   0  0  0  0  0  0  0  0  0  0  0  0
    3.1800   -2.4464   -3.5224 F   0  0  0  0  0  0  0  0  0  0  0  0
    3.0280   -2.2359   -6.2115 F   0  0  0  0  0  0  0  0  0  0  0  0
   -3.2852   -4.1143  -11.4459 F   0  0  0  0  0  0  0  0  0  0  0  0
   -3.2244   -4.2342   -8.7728 F   0  0  0  0  0  0  0  0  0  0  0  0
   -0.2689   -1.5027  -10.9297 F   0  0  0  0  0  0  0  0  0  0  0  0
    0.0475   -4.1306  -11.3950 F   0  0  0  0  0  0  0  0  0  0  0  0
    2.0265   -4.2004   -8.7045 F   0  0  0  0  0  0  0  0  0  0  0  0
    1.2487   -1.7343   -7.9593 F   0  0  0  0  0  0  0  0  0  0  0  0
   -3.5162   -1.4611   -5.2708 F   0  0  0  0  0  0  0  0  0  0  0  0
   -1.0750   -0.6969   -6.4011 F   0  0  0  0  0  0  0  0  0  0  0  0
   -0.6765   -3.0923   -3.6170 F   0  0  0  0  0  0  0  0  0  0  0  0
    1.1373   -5.0562   -4.0341 F   0  0  0  0  0  0  0  0  0  0  0  0
   -5.3121   -1.6224   -9.2239 F   0  0  0  0  0  0  0  0  0  0  0  0
   -4.3889   -0.9703  -11.6834 F   0  0  0  0  0  0  0  0  0  0  0  0
   -0.4568   -5.8784   -6.8743 F   0  0  0  0  0  0  0  0  0  0  0  0
   -2.0120   -3.6684   -6.6314 F   0  0  0  0  0  0  0  0  0  0  0  0
  1  2  1  0
  1  3  1  0
  2  7  1  0
  2 14  1  0
  2 15  1  0
  3  4  1  0
  3 16  1  0
  3 17  1  0
  4  5  1  0
  4 30  1  0
  4 31  1  0
  5  8  1  0
  5 18  1  0
  5 19  1  0
  6  7  1  0
  6  9  1  0
  6 32  1  0
  6 33  1  0
  7 22  1  0
  7 23  1  0
  8 10  1  0
  8 20  1  0
  8 21  1  0
  9 11  1  0
  9 36  1  0
  9 37  1  0
 10 12  1  0
 10 34  1  0
 10 35  1  0
 11 13  1  0
 11 28  1  0
 11 29  1  0
 12 13  1  0
 12 24  1  0
 12 25  1  0
 13 26  1  0
 13 27  1  0
M  CHG  1   1   1
M  RAD  1   1   2
M  END
$$$$

     RDKit          3D

 37 37  0  0  0  0  0  0  0  0999 V2000
   -0.1935    0.1063   -3.0992 S   0  0  0  0  0  2  0  0  0  0  0  0
   -1.6147    1.5943   -3.7655 Si  0  0  0  0  0  4  0  0  0  0  0  0
   -1.0371   -1.8590   -3.2094 Si  0  0  0  0  0  4  0  0  0  0  0  0
   -0.5932   -2.7806   -5.2199 Si  0  0  0  0  0  4  0  0  0  0  0  0
    1.5743   -2.7657   -5.6478 Si  0  0  0  0  0  4  0  0  0  0  0  0
   -1.7763    4.8340   -5.5184 Si  0  0  0  0  0  4  0  0  0  0  0  0
   -0.5273    3.4571   -4.3015 Si  0  0  0  0  0  4  0  0  0  0  0  0
    2.0430   -1.9301   -7.6555 Si  0  0  0  0  0  4  0  0  0  0  0  0
   -2.4587    3.9073   -7.4106 Si  0  0  0  0  0  4  0  0  0  0  0  0
    1.0349    0.0065   -8.0153 Si  0  0  0  0  0  4  0  0  0  0  0  0
   -0.7461    3.3494   -8.7286 Si  0  0  0  0  0  4  0  0  0  0  0  0
   -0.4617   -0.1946   -9.6832 Si  0  0  0  0  0  4  0  0  0  0  0  0
   -1.2991    1.8012  -10.2066 Si  0  0  0  0  0  4  0  0  0  0  0  0
   -2.6866    1.9561   -2.5113 F   0  0  0  0  0  0  0  0  0  0  0  0
   -2.3867    0.9888   -5.1127 F   0  0  0  0  0  0  0  0  0  0  0  0
   -2.7169   -1.8088   -3.0416 F   0  0  0  0  0  0  0  0  0  0  0  0
   -0.4495   -2.8587   -1.9782 F   0  0  0  0  0  0  0  0  0  0  0  0
    2.1397   -4.3695   -5.6132 F   0  0  0  0  0  0  0  0  0  0  0  0
    2.4220   -1.9227   -4.4704 F   0  0  0  0  0  0  0  0  0  0  0  0
    3.7326   -1.7393   -7.7442 F   0  0  0  0  0  0  0  0  0  0  0  0
    1.6270   -3.0099   -8.8945 F   0  0  0  0  0  0  0  0  0  0  0  0
    0.9423    3.1044   -5.0536 F   0  0  0  0  0  0  0  0  0  0  0  0
   -0.1498    4.2612   -2.8546 F   0  0  0  0  0  0  0  0  0  0  0  0
    0.3611   -0.8879  -10.9908 F   0  0  0  0  0  0  0  0  0  0  0  0
   -1.7060   -1.2295   -9.2634 F   0  0  0  0  0  0  0  0  0  0  0  0
   -0.6915    2.2114  -11.7485 F   0  0  0  0  0  0  0  0  0  0  0  0
   -2.9817    1.6944  -10.3867 F   0  0  0  0  0  0  0  0  0  0  0  0
   -0.3036    4.7555   -9.5880 F   0  0  0  0  0  0  0  0  0  0  0  0
    0.5434    2.9160   -7.7680 F   0  0  0  0  0  0  0  0  0  0  0  0
   -1.2014   -4.3634   -5.1571 F   0  0  0  0  0  0  0  0  0  0  0  0
   -1.4876   -1.9300   -6.3535 F   0  0  0  0  0  0  0  0  0  0  0  0
   -0.8572    6.1929   -5.8830 F   0  0  0  0  0  0  0  0  0  0  0  0
   -3.1054    5.2935   -4.6225 F   0  0  0  0  0  0  0  0  0  0  0  0
    0.3245    0.6360   -6.6463 F   0  0  0  0  0  0  0  0  0  0  0  0
    2.1947    1.1371   -8.5517 F   0  0  0  0  0  0  0  0  0  0  0  0
   -3.4360    2.5760   -7.0692 F   0  0  0  0  0  0  0  0  0  0  0  0
   -3.3874    5.0464   -8.2397 F   0  0  0  0  0  0  0  0  0  0  0  0
  1  2  1  0
  1  3  1  0
  2  7  1  0
  2 14  1  0
  2 15  1  0
  3  4  1  0
  3 16  1  0
  3 17  1  0
  4  5  1  0
  4 30  1  0
  4 31  1  0
  5  8  1  0
  5 18  1  0
  5 19  1  0
  6  7  1  0
  6  9  1  0
  6 32  1  0
  6 33  1  0
  7 22  1  0
  7 23  1  0
  8 10  1  0
  8 20  1  0
  8 21  1  0
  9 11  1  0
  9 36  1  0
  9 37  1  0
 10 12  1  0
 10 34  1  0
 10 35  1  0
 11 13  1  0
 11 28  1  0
 11 29  1  0
 12 13  1  0
 12 24  1  0
 12 25  1  0
 13 26  1  0
 13 27  1  0
M  CHG  1   1   1
M  RAD  1   1   2
M  END
$$$$

     RDKit          3D

 37 37  0  0  0  0  0  0  0  0999 V2000
   -0.1935    0.1063   -3.0992 S   0  0  0  0  0  2  0  0  0  0  0  0
    1.0380   -1.2412   -4.1953 Si  0  0  0  0  0  4  0  0  0  0  0  0
   -2.1412    0.3231   -3.9737 Si  0  0  0  0  0  4  0  0  0  0  0  0
   -2.1831    1.8736   -5.5302 Si  0  0  0  0  0  4  0  0  0  0  0  0
   -1.5066    1.2138   -7.5137 Si  0  0  0  0  0  4  0  0  0  0  0  0
    4.5108   -1.5621   -5.4092 Si  0  0  0  0  0  4  0  0  0  0  0  0
    3.1364   -0.4736   -4.0718 Si  0  0  0  0  0  4  0  0  0  0  0  0
   -2.3713   -0.6872   -8.2028 Si  0  0  0  0  0  4  0  0  0  0  0  0
    3.7819   -3.5982   -5.9294 Si  0  0  0  0  0  4  0  0  0  0  0  0
   -0.9434   -1.8115   -9.5250 Si  0  0  0  0  0  4  0  0  0  0  0  0
    2.6986   -3.6019   -7.8916 Si  0  0  0  0  0  4  0  0  0  0  0  0
   -0.8525   -3.9410   -9.0107 Si  0  0  0  0  0  4  0  0  0  0  0  0
    0.7561   -4.6077   -7.7098 Si  0  0  0  0  0  4  0  0  0  0  0  0
    0.5510   -1.4210   -5.7888 F   0  0  0  0  0  0  0  0  0  0  0  0
    1.0120   -2.7372   -3.3891 F   0  0  0  0  0  0  0  0  0  0  0  0
   -3.1634    0.8533   -2.7077 F   0  0  0  0  0  0  0  0  0  0  0  0
   -2.7440   -1.1525   -4.4638 F   0  0  0  0  0  0  0  0  0  0  0  0
    0.1869    1.0611   -7.4975 F   0  0  0  0  0  0  0  0  0  0  0  0
   -1.8563    2.4309   -8.6309 F   0  0  0  0  0  0  0  0  0  0  0  0
   -3.8133   -0.3489   -9.0401 F   0  0  0  0  0  0  0  0  0  0  0  0
   -2.7857   -1.7264   -6.9479 F   0  0  0  0  0  0  0  0  0  0  0  0
    3.6445   -0.6169   -2.4788 F   0  0  0  0  0  0  0  0  0  0  0  0
    3.0773    1.1822   -4.4433 F   0  0  0  0  0  0  0  0  0  0  0  0
   -0.8414   -4.8423  -10.4459 F   0  0  0  0  0  0  0  0  0  0  0  0
   -2.3488   -4.3359   -8.2782 F   0  0  0  0  0  0  0  0  0  0  0  0
    0.2674   -4.4742   -6.0855 F   0  0  0  0  0  0  0  0  0  0  0  0
    1.0146   -6.2671   -7.9343 F   0  0  0  0  0  0  0  0  0  0  0  0
    3.6687   -4.4654   -9.0023 F   0  0  0  0  0  0  0  0  0  0  0  0
    2.6357   -2.0372   -8.4220 F   0  0  0  0  0  0  0  0  0  0  0  0
   -1.2034    3.1616   -5.0368 F   0  0  0  0  0  0  0  0  0  0  0  0
   -3.7591    2.5063   -5.6769 F   0  0  0  0  0  0  0  0  0  0  0  0
    4.6282   -0.6846   -6.8688 F   0  0  0  0  0  0  0  0  0  0  0  0
    6.0615   -1.5969   -4.7449 F   0  0  0  0  0  0  0  0  0  0  0  0
   -1.4854   -1.5974  -11.1156 F   0  0  0  0  0  0  0  0  0  0  0  0
    0.5298   -1.0171   -9.4352 F   0  0  0  0  0  0  0  0  0  0  0  0
    5.1264   -4.6256   -5.9784 F   0  0  0  0  0  0  0  0  0  0  0  0
    2.7777   -4.1783   -4.6920 F   0  0  0  0  0  0  0  0  0  0  0  0
  1  2  1  0
  1  3  1  0
  2  7  1  0
  2 14  1  0
  2 15  1  0
  3  4  1  0
  3 16  1  0
  3 17  1  0
  4  5  1  0
  4 30  1  0
  4 31  1  0
  5  8  1  0
  5 18  1  0
  5 19  1  0
  6  7  1  0
  6  9  1  0
  6 32  1  0
  6 33  1  0
  7 22  1  0
  7 23  1  0
  8 10  1  0
  8 20  1  0
  8 21  1  0
  9 11  1  0
  9 36  1  0
  9 37  1  0
 10 12  1  0
 10 34  1  0
 10 35  1  0
 11 13  1  0
 11 28  1  0
 11 29  1  0
 12 13  1  0
 12 24  1  0
 12 25  1  0
 13 26  1  0
 13 27  1  0
M  CHG  1   1   1
M  RAD  1   1   2
M  END
$$$$

     RDKit          3D

 37 37  0  0  0  0  0  0  0  0999 V2000
   -0.1935    0.1063   -3.0992 S   0  0  0  0  0  2  0  0  0  0  0  0
   -1.5753    1.6307   -3.7658 Si  0  0  0  0  0  4  0  0  0  0  0  0
   -1.0891   -1.8360   -3.2065 Si  0  0  0  0  0  4  0  0  0  0  0  0
   -0.6717   -2.7713   -5.2163 Si  0  0  0  0  0  4  0  0  0  0  0  0
    1.4951   -2.8144   -5.6462 Si  0  0  0  0  0  4  0  0  0  0  0  0
   -1.6525    4.8717   -5.5223 Si  0  0  0  0  0  4  0  0  0  0  0  0
   -0.4394    3.4634   -4.3050 Si  0  0  0  0  0  4  0  0  0  0  0  0
    1.9839   -1.9937   -7.6553 Si  0  0  0  0  0  4  0  0  0  0  0  0
   -2.3610    3.9614   -7.4128 Si  0  0  0  0  0  4  0  0  0  0  0  0
    1.0273   -0.0315   -8.0163 Si  0  0  0  0  0  4  0  0  0  0  0  0
   -0.6651    3.3568   -8.7317 Si  0  0  0  0  0  4  0  0  0  0  0  0
   -0.4757   -0.1945   -9.6826 Si  0  0  0  0  0  4  0  0  0  0  0  0
   -1.2603    1.8222  -10.2075 Si  0  0  0  0  0  4  0  0  0  0  0  0
   -2.6361    2.0223   -2.5111 F   0  0  0  0  0  0  0  0  0  0  0  0
   -2.3644    1.0445   -5.1117 F   0  0  0  0  0  0  0  0  0  0  0  0
   -2.7667   -1.7411   -3.0372 F   0  0  0  0  0  0  0  0  0  0  0  0
   -0.5271   -2.8496   -1.9746 F   0  0  0  0  0  0  0  0  0  0  0  0
    2.0178   -4.4326   -5.6103 F   0  0  0  0  0  0  0  0  0  0  0  0
    2.3659   -1.9929   -4.4705 F   0  0  0  0  0  0  0  0  0  0  0  0
    3.6779   -1.8479   -7.7457 F   0  0  0  0  0  0  0  0  0  0  0  0
    1.5383   -3.0634   -8.8927 F   0  0  0  0  0  0  0  0  0  0  0  0
    1.0197    3.0711   -5.0580 F   0  0  0  0  0  0  0  0  0  0  0  0
   -0.0393    4.2588   -2.8593 F   0  0  0  0  0  0  0  0  0  0  0  0
    0.3272   -0.9109  -10.9902 F   0  0  0  0  0  0  0  0  0  0  0  0
   -1.7466   -1.1956   -9.2605 F   0  0  0  0  0  0  0  0  0  0  0  0
   -0.6435    2.2145  -11.7504 F   0  0  0  0  0  0  0  0  0  0  0  0
   -2.9454    1.7599  -10.3860 F   0  0  0  0  0  0  0  0  0  0  0  0
   -0.1862    4.7497   -9.5930 F   0  0  0  0  0  0  0  0  0  0  0  0
    0.6134    2.8903   -7.7718 F   0  0  0  0  0  0  0  0  0  0  0  0
   -1.3216   -4.3373   -5.1512 F   0  0  0  0  0  0  0  0  0  0  0  0
   -1.5442   -1.8985   -6.3501 F   0  0  0  0  0  0  0  0  0  0  0  0
   -0.6980    6.2053   -5.8891 F   0  0  0  0  0  0  0  0  0  0  0  0
   -2.9681    5.3673   -4.6256 F   0  0  0  0  0  0  0  0  0  0  0  0
    0.3351    0.6182   -6.6474 F   0  0  0  0  0  0  0  0  0  0  0  0
    2.2161    1.0674   -8.5550 F   0  0  0  0  0  0  0  0  0  0  0  0
   -3.3730    2.6569   -7.0690 F   0  0  0  0  0  0  0  0  0  0  0  0
   -3.2599    5.1238   -8.2424 F   0  0  0  0  0  0  0  0  0  0  0  0
  1  2  1  0
  1  3  1  0
  2  7  1  0
  2 14  1  0
  2 15  1  0
  3  4  1  0
  3 16  1  0
  3 17  1  0
  4  5  1  0
  4 30  1  0
  4 31  1  0
  5  8  1  0
  5 18  1  0
  5 19  1  0
  6  7  1  0
  6  9  1  0
  6 32  1  0
  6 33  1  0
  7 22  1  0
  7 23  1  0
  8 10  1  0
  8 20  1  0
  8 21  1  0
  9 11  1  0
  9 36  1  0
  9 37  1  0
 10 12  1  0
 10 34  1  0
 10 35  1  0
 11 13  1  0
 11 28  1  0
 11 29  1  0
 12 13  1  0
 12 24  1  0
 12 25  1  0
 13 26  1  0
 13 27  1  0
M  CHG  1   1   1
M  RAD  1   1   2
M  END
$$$$

     RDKit          3D

 37 37  0  0  0  0  0  0  0  0999 V2000
   -0.1935    0.1063   -3.0992 S   0  0  0  0  0  2  0  0  0  0  0  0
   -1.4439   -1.3008   -4.0943 Si  0  0  0  0  0  4  0  0  0  0  0  0
   -0.2926    2.0558   -3.9907 Si  0  0  0  0  0  4  0  0  0  0  0  0
    1.1262    2.2801   -5.6536 Si  0  0  0  0  0  4  0  0  0  0  0  0
    0.4217    1.5020   -7.5838 Si  0  0  0  0  0  4  0  0  0  0  0  0
   -1.3971   -4.7992   -5.2755 Si  0  0  0  0  0  4  0  0  0  0  0  0
   -0.4044   -3.2812   -4.0216 Si  0  0  0  0  0  4  0  0  0  0  0  0
   -1.6188    2.1066   -8.1377 Si  0  0  0  0  0  4  0  0  0  0  0  0
   -3.5419   -4.3449   -5.6510 Si  0  0  0  0  0  4  0  0  0  0  0  0
   -2.6390    0.5310   -9.3737 Si  0  0  0  0  0  4  0  0  0  0  0  0
   -3.8237   -3.2931   -7.6101 Si  0  0  0  0  0  4  0  0  0  0  0  0
   -4.6974    0.1720   -8.7092 Si  0  0  0  0  0  4  0  0  0  0  0  0
   -5.0571   -1.4946   -7.3610 Si  0  0  0  0  0  4  0  0  0  0  0  0
   -1.7967   -0.8588   -5.6719 F   0  0  0  0  0  0  0  0  0  0  0  0
   -2.8702   -1.4590   -3.1837 F   0  0  0  0  0  0  0  0  0  0  0  0
    0.1885    3.1519   -2.7676 F   0  0  0  0  0  0  0  0  0  0  0  0
   -1.8645    2.4578   -4.3758 F   0  0  0  0  0  0  0  0  0  0  0  0
    0.4911   -0.1967   -7.5535 F   0  0  0  0  0  0  0  0  0  0  0  0
    1.5018    1.9933   -8.7855 F   0  0  0  0  0  0  0  0  0  0  0  0
   -1.5297    3.5708   -8.9998 F   0  0  0  0  0  0  0  0  0  0  0  0
   -2.6122    2.3974   -6.8129 F   0  0  0  0  0  0  0  0  0  0  0  0
   -0.3684   -3.7857   -2.4214 F   0  0  0  0  0  0  0  0  0  0  0  0
    1.1996   -3.0131   -4.5101 F   0  0  0  0  0  0  0  0  0  0  0  0
   -5.6883    0.0287  -10.0765 F   0  0  0  0  0  0  0  0  0  0  0  0
   -5.2301    1.6129   -7.9533 F   0  0  0  0  0  0  0  0  0  0  0  0
   -4.8742   -0.9747   -5.7512 F   0  0  0  0  0  0  0  0  0  0  0  0
   -6.6807   -1.9674   -7.4663 F   0  0  0  0  0  0  0  0  0  0  0  0
   -4.6302   -4.3787   -8.6546 F   0  0  0  0  0  0  0  0  0  0  0  0
   -2.3214   -3.0348   -8.2505 F   0  0  0  0  0  0  0  0  0  0  0  0
    2.5617    1.4802   -5.2512 F   0  0  0  0  0  0  0  0  0  0  0  0
    1.5377    3.9227   -5.8480 F   0  0  0  0  0  0  0  0  0  0  0  0
   -0.6165   -4.8188   -6.7936 F   0  0  0  0  0  0  0  0  0  0  0  0
   -1.1841   -6.3340   -4.6074 F   0  0  0  0  0  0  0  0  0  0  0  0
   -2.6091    1.0783  -10.9766 F   0  0  0  0  0  0  0  0  0  0  0  0
   -1.6563   -0.8263   -9.3378 F   0  0  0  0  0  0  0  0  0  0  0  0
   -4.3875   -5.8111   -5.6241 F   0  0  0  0  0  0  0  0  0  0  0  0
   -4.1587   -3.4101   -4.3774 F   0  0  0  0  0  0  0  0  0  0  0  0
  1  2  1  0
  1  3  1  0
  2  7  1  0
  2 14  1  0
  2 15  1  0
  3  4  1  0
  3 16  1  0
  3 17  1  0
  4  5  1  0
  4 30  1  0
  4 31  1  0
  5  8  1  0
  5 18  1  0
  5 19  1  0
  6  7  1  0
  6  9  1  0
  6 32  1  0
  6 33  1  0
  7 22  1  0
  7 23  1  0
  8 10  1  0
  8 20  1  0
  8 21  1  0
  9 11  1  0
  9 36  1  0
  9 37  1  0
 10 12  1  0
 10 34  1  0
 10 35  1  0
 11 13  1  0
 11 28  1  0
 11 29  1  0
 12 13  1  0
 12 24  1  0
 12 25  1  0
 13 26  1  0
 13 27  1  0
M  CHG  1   1   1
M  RAD  1   1   2
M  END
$$$$

     RDKit          3D

 37 37  0  0  0  0  0  0  0  0999 V2000
   -0.1935    0.1063   -3.0992 S   0  0  0  0  0  2  0  0  0  0  0  0
   -1.8472    0.5230   -4.3081 Si  0  0  0  0  0  4  0  0  0  0  0  0
    1.5889    1.1236   -3.5675 Si  0  0  0  0  0  4  0  0  0  0  0  0
    3.2420   -0.4297   -3.6600 Si  0  0  0  0  0  4  0  0  0  0  0  0
    2.2721   -2.1611   -4.6338 Si  0  0  0  0  0  4  0  0  0  0  0  0
   -1.8624   -2.1581   -6.8052 Si  0  0  0  0  0  4  0  0  0  0  0  0
   -1.6141    0.0077   -6.4433 Si  0  0  0  0  0  4  0  0  0  0  0  0
    3.5938   -3.8462   -5.1038 Si  0  0  0  0  0  4  0  0  0  0  0  0
   -1.2894   -2.7710   -8.8530 Si  0  0  0  0  0  4  0  0  0  0  0  0
    2.2855   -5.4577   -5.9052 Si  0  0  0  0  0  4  0  0  0  0  0  0
    0.6948   -2.1657   -9.5007 Si  0  0  0  0  0  4  0  0  0  0  0  0
    1.9464   -5.3752   -8.0761 Si  0  0  0  0  0  4  0  0  0  0  0  0
    2.3778   -3.4661   -9.0376 Si  0  0  0  0  0  4  0  0  0  0  0  0
   -3.1808   -0.3608   -3.7106 F   0  0  0  0  0  0  0  0  0  0  0  0
   -2.2947    2.1633   -4.1517 F   0  0  0  0  0  0  0  0  0  0  0  0
    2.0426    2.2351   -2.3674 F   0  0  0  0  0  0  0  0  0  0  0  0
    1.5333    1.9568   -5.0186 F   0  0  0  0  0  0  0  0  0  0  0  0
    1.0681   -2.7262   -3.5613 F   0  0  0  0  0  0  0  0  0  0  0  0
    1.5984   -1.5994   -6.0646 F   0  0  0  0  0  0  0  0  0  0  0  0
    4.2475   -4.4222   -3.6328 F   0  0  0  0  0  0  0  0  0  0  0  0
    4.8741   -3.4809   -6.0877 F   0  0  0  0  0  0  0  0  0  0  0  0
   -0.1731    0.6322   -6.9884 F   0  0  0  0  0  0  0  0  0  0  0  0
   -2.8552    0.8111   -7.2998 F   0  0  0  0  0  0  0  0  0  0  0  0
    2.9334   -6.6059   -8.7539 F   0  0  0  0  0  0  0  0  0  0  0  0
    0.3581   -5.9263   -8.3842 F   0  0  0  0  0  0  0  0  0  0  0  0
    3.2466   -3.7815  -10.4864 F   0  0  0  0  0  0  0  0  0  0  0  0
    3.5409   -2.6465   -8.0821 F   0  0  0  0  0  0  0  0  0  0  0  0
    1.0100   -0.6080   -8.8622 F   0  0  0  0  0  0  0  0  0  0  0  0
    0.6189   -1.8753  -11.1925 F   0  0  0  0  0  0  0  0  0  0  0  0
    4.5071    0.1402   -4.6010 F   0  0  0  0  0  0  0  0  0  0  0  0
    3.7403   -0.8112   -2.0935 F   0  0  0  0  0  0  0  0  0  0  0  0
   -1.0665   -3.0673   -5.6297 F   0  0  0  0  0  0  0  0  0  0  0  0
   -3.5247   -2.5142   -6.6234 F   0  0  0  0  0  0  0  0  0  0  0  0
    2.9573   -6.9505   -5.4182 F   0  0  0  0  0  0  0  0  0  0  0  0
    0.7777   -5.3743   -5.1062 F   0  0  0  0  0  0  0  0  0  0  0  0
   -2.4525   -2.0403   -9.8828 F   0  0  0  0  0  0  0  0  0  0  0  0
   -1.5958   -4.4322   -9.0000 F   0  0  0  0  0  0  0  0  0  0  0  0
  1  2  1  0
  1  3  1  0
  2  7  1  0
  2 14  1  0
  2 15  1  0
  3  4  1  0
  3 16  1  0
  3 17  1  0
  4  5  1  0
  4 30  1  0
  4 31  1  0
  5  8  1  0
  5 18  1  0
  5 19  1  0
  6  7  1  0
  6  9  1  0
  6 32  1  0
  6 33  1  0
  7 22  1  0
  7 23  1  0
  8 10  1  0
  8 20  1  0
  8 21  1  0
  9 11  1  0
  9 36  1  0
  9 37  1  0
 10 12  1  0
 10 34  1  0
 10 35  1  0
 11 13  1  0
 11 28  1  0
 11 29  1  0
 12 13  1  0
 12 24  1  0
 12 25  1  0
 13 26  1  0
 13 27  1  0
M  CHG  1   1   1
M  RAD  1   1   2
M  END
$$$$

     RDKit          3D

 37 37  0  0  0  0  0  0  0  0999 V2000
   -0.1935    0.1063   -3.0992 S   0  0  0  0  0  2  0  0  0  0  0  0
   -1.7991    0.6914   -4.3526 Si  0  0  0  0  0  4  0  0  0  0  0  0
    1.2607   -1.0918   -4.1357 Si  0  0  0  0  0  4  0  0  0  0  0  0
    1.9495    0.0782   -5.9143 Si  0  0  0  0  0  4  0  0  0  0  0  0
    2.5667   -1.1977   -7.6129 Si  0  0  0  0  0  4  0  0  0  0  0  0
   -0.1578    4.0161   -4.4310 Si  0  0  0  0  0  4  0  0  0  0  0  0
   -2.0514    2.9114   -4.4657 Si  0  0  0  0  0  4  0  0  0  0  0  0
    1.8185   -0.2477   -9.5213 Si  0  0  0  0  0  4  0  0  0  0  0  0
    0.6781    4.5159   -6.4275 Si  0  0  0  0  0  4  0  0  0  0  0  0
    3.1851    1.2667  -10.3028 Si  0  0  0  0  0  4  0  0  0  0  0  0
   -0.6330    3.9692   -8.1054 Si  0  0  0  0  0  4  0  0  0  0  0  0
    2.4987    3.3776  -10.0470 Si  0  0  0  0  0  4  0  0  0  0  0  0
    0.3338    3.6344  -10.0297 Si  0  0  0  0  0  4  0  0  0  0  0  0
   -1.7076    0.0093   -5.8911 F   0  0  0  0  0  0  0  0  0  0  0  0
   -3.2364    0.0716   -3.6626 F   0  0  0  0  0  0  0  0  0  0  0  0
    2.5895   -1.2804   -3.1140 F   0  0  0  0  0  0  0  0  0  0  0  0
    0.6688   -2.5861   -4.5564 F   0  0  0  0  0  0  0  0  0  0  0  0
    1.8963   -2.7218   -7.4372 F   0  0  0  0  0  0  0  0  0  0  0  0
    4.2557   -1.3073   -7.7146 F   0  0  0  0  0  0  0  0  0  0  0  0
    0.3313    0.4419   -9.1514 F   0  0  0  0  0  0  0  0  0  0  0  0
    1.5336   -1.5130  -10.6008 F   0  0  0  0  0  0  0  0  0  0  0  0
   -2.9378    3.3534   -3.0682 F   0  0  0  0  0  0  0  0  0  0  0  0
   -3.0364    3.3228   -5.7679 F   0  0  0  0  0  0  0  0  0  0  0  0
    3.1297    4.1882  -11.4259 F   0  0  0  0  0  0  0  0  0  0  0  0
    3.2957    4.1120   -8.7557 F   0  0  0  0  0  0  0  0  0  0  0  0
   -0.3444    2.2593  -10.7968 F   0  0  0  0  0  0  0  0  0  0  0  0
   -0.1030    4.9213  -11.0765 F   0  0  0  0  0  0  0  0  0  0  0  0
   -1.8117    5.2101   -8.2205 F   0  0  0  0  0  0  0  0  0  0  0  0
   -1.5477    2.5843   -7.6942 F   0  0  0  0  0  0  0  0  0  0  0  0
    3.2237    1.0800   -5.4631 F   0  0  0  0  0  0  0  0  0  0  0  0
    0.5968    0.9517   -6.4136 F   0  0  0  0  0  0  0  0  0  0  0  0
    0.9480    3.1548   -3.4690 F   0  0  0  0  0  0  0  0  0  0  0  0
   -0.4103    5.4907   -3.6060 F   0  0  0  0  0  0  0  0  0  0  0  0
    4.7119    1.1530   -9.5445 F   0  0  0  0  0  0  0  0  0  0  0  0
    3.4870    0.9076  -11.9457 F   0  0  0  0  0  0  0  0  0  0  0  0
    1.1111    6.1649   -6.5240 F   0  0  0  0  0  0  0  0  0  0  0  0
    2.1504    3.6587   -6.5515 F   0  0  0  0  0  0  0  0  0  0  0  0
  1  2  1  0
  1  3  1  0
  2  7  1  0
  2 14  1  0
  2 15  1  0
  3  4  1  0
  3 16  1  0
  3 17  1  0
  4  5  1  0
  4 30  1  0
  4 31  1  0
  5  8  1  0
  5 18  1  0
  5 19  1  0
  6  7  1  0
  6  9  1  0
  6 32  1  0
  6 33  1  0
  7 22  1  0
  7 23  1  0
  8 10  1  0
  8 20  1  0
  8 21  1  0
  9 11  1  0
  9 36  1  0
  9 37  1  0
 10 12  1  0
 10 34  1  0
 10 35  1  0
 11 13  1  0
 11 28  1  0
 11 29  1  0
 12 13  1  0
 12 24  1  0
 12 25  1  0
 13 26  1  0
 13 27  1  0
M  CHG  1   1   1
M  RAD  1   1   2
M  END
$$$$
