
     RDKit          3D

 37 37  0  0  0  0  0  0  0  0999 V2000
   -0.3590   -0.1119    2.5407 S   0  0  0  0  0  2  0  0  0  0  0  0
   -0.9411   -2.1172    2.4909 Si  0  0  0  0  0  4  0  0  0  0  0  0
   -0.6003    0.8958    4.3676 Si  0  0  0  0  0  4  0  0  0  0  0  0
   -2.6975    0.8507    5.0843 Si  0  0  0  0  0  4  0  0  0  0  0  0
   -3.0368    2.0097    6.9107 Si  0  0  0  0  0  4  0  0  0  0  0  0
   -2.0051   -4.4504    5.1110 Si  0  0  0  0  0  4  0  0  0  0  0  0
   -0.2811   -3.3423    4.2136 Si  0  0  0  0  0  4  0  0  0  0  0  0
   -1.3928    1.9583    8.3648 Si  0  0  0  0  0  4  0  0  0  0  0  0
   -1.7437   -4.7290    7.3047 Si  0  0  0  0  0  4  0  0  0  0  0  0
   -1.9802    1.1038   10.3367 Si  0  0  0  0  0  4  0  0  0  0  0  0
   -0.7260   -2.9806    8.2108 Si  0  0  0  0  0  4  0  0  0  0  0  0
   -2.9470   -0.8768   10.1567 Si  0  0  0  0  0  4  0  0  0  0  0  0
   -1.4652   -2.5482   10.2655 Si  0  0  0  0  0  4  0  0  0  0  0  0
   -2.6441   -2.2010    2.4005 F   0  0  0  0  0  0  0  0  0  0  0  0
   -0.3679   -2.8204    1.0587 F   0  0  0  0  0  0  0  0  0  0  0  0
    0.4781    0.2608    5.4872 F   0  0  0  0  0  0  0  0  0  0  0  0
   -0.1774    2.5220    4.1422 F   0  0  0  0  0  0  0  0  0  0  0  0
   -4.4469    1.4210    7.6742 F   0  0  0  0  0  0  0  0  0  0  0  0
   -3.4292    3.6140    6.4704 F   0  0  0  0  0  0  0  0  0  0  0  0
   -0.0443    1.1163    7.8347 F   0  0  0  0  0  0  0  0  0  0  0  0
   -0.8859    3.5540    8.6646 F   0  0  0  0  0  0  0  0  0  0  0  0
    0.8203   -4.5276    3.6967 F   0  0  0  0  0  0  0  0  0  0  0  0
    0.5305   -2.4316    5.3735 F   0  0  0  0  0  0  0  0  0  0  0  0
   -4.0390   -1.1028   11.4445 F   0  0  0  0  0  0  0  0  0  0  0  0
   -3.8120   -1.0523    8.7337 F   0  0  0  0  0  0  0  0  0  0  0  0
   -2.2353   -3.9173   10.9283 F   0  0  0  0  0  0  0  0  0  0  0  0
   -0.1765   -2.1426   11.2990 F   0  0  0  0  0  0  0  0  0  0  0  0
    0.9431   -3.2677    8.2109 F   0  0  0  0  0  0  0  0  0  0  0  0
   -1.0258   -1.6553    7.2382 F   0  0  0  0  0  0  0  0  0  0  0  0
   -3.6819    1.4538    3.8473 F   0  0  0  0  0  0  0  0  0  0  0  0
   -3.1649   -0.7542    5.3379 F   0  0  0  0  0  0  0  0  0  0  0  0
   -3.4735   -3.6813    4.7570 F   0  0  0  0  0  0  0  0  0  0  0  0
   -2.1177   -6.0083    4.4210 F   0  0  0  0  0  0  0  0  0  0  0  0
   -0.5338    0.8813   11.2180 F   0  0  0  0  0  0  0  0  0  0  0  0
   -2.9088    2.1952   11.2286 F   0  0  0  0  0  0  0  0  0  0  0  0
   -0.9267   -6.1724    7.6423 F   0  0  0  0  0  0  0  0  0  0  0  0
   -3.2841   -4.8673    8.0235 F   0  0  0  0  0  0  0  0  0  0  0  0
  1  2  1  0
  1  3  1  0
  2  7  1  0
  2 14  1  0
  2 15  1  0
  3  4  1  0
  3 16  1  0
  3 17  1  0
  4  5  1  0
  4 30  1  0
  4 31  1  0
  5  8  1  0
  5 18  1  0
  5 19  1  0
  6  7  1  0
  6  9  1  0
  6 32  1  0
  6 33  1  0
  7 22  1  0
  7 23  1  0
  8 10  1  0
  8 20  1  0
  8 21  1  0
  9 11  1  0
  9 36  1  0
  9 37  1  0
 10 12  1  0
 10 34  1  0
 10 35  1  0
 11 13  1  0
 11 28  1  0
 11 29  1  0
 12 13  1  0
 12 24  1  0
 12 25  1  0
 13 26  1  0
 13 27  1  0
M  CHG  1   1   1
M  RAD  1   1   2
M  END
$$$$

     RDKit          3D

 37 37  0  0  0  0  0  0  0  0999 V2000
   -0.3590   -0.1119    2.5407 S   0  0  0  0  0  2  0  0  0  0  0  0
   -2.2726   -0.7120    3.1845 Si  0  0  0  0  0  4  0  0  0  0  0  0
    0.8390    0.8509    3.9503 Si  0  0  0  0  0  4  0  0  0  0  0  0
   -0.1915    1.5543    5.7598 Si  0  0  0  0  0  4  0  0  0  0  0  0
   -0.5111    3.7727    5.7458 Si  0  0  0  0  0  4  0  0  0  0  0  0
   -3.5714   -2.2233    6.2877 Si  0  0  0  0  0  4  0  0  0  0  0  0
   -2.2377   -2.4901    4.5129 Si  0  0  0  0  0  4  0  0  0  0  0  0
   -2.4950    4.2711    6.6958 Si  0  0  0  0  0  4  0  0  0  0  0  0
   -2.3045   -2.1229    8.0894 Si  0  0  0  0  0  4  0  0  0  0  0  0
   -2.3308    4.4179    8.8829 Si  0  0  0  0  0  4  0  0  0  0  0  0
   -3.2120   -1.0102    9.7645 Si  0  0  0  0  0  4  0  0  0  0  0  0
   -2.3561    2.5068    9.9494 Si  0  0  0  0  0  4  0  0  0  0  0  0
   -3.8288    1.0434    9.2321 Si  0  0  0  0  0  4  0  0  0  0  0  0
   -3.1642   -1.1564    1.7943 F   0  0  0  0  0  0  0  0  0  0  0  0
   -3.1553    0.5702    3.8797 F   0  0  0  0  0  0  0  0  0  0  0  0
    1.6026    2.1902    3.2178 F   0  0  0  0  0  0  0  0  0  0  0  0
    2.1072   -0.1889    4.4232 F   0  0  0  0  0  0  0  0  0  0  0  0
   -0.6075    4.2602    4.1337 F   0  0  0  0  0  0  0  0  0  0  0  0
    0.7051    4.5682    6.5812 F   0  0  0  0  0  0  0  0  0  0  0  0
   -2.8955    5.8224    6.0993 F   0  0  0  0  0  0  0  0  0  0  0  0
   -3.6796    3.2266    6.1682 F   0  0  0  0  0  0  0  0  0  0  0  0
   -0.6320   -2.7493    4.9868 F   0  0  0  0  0  0  0  0  0  0  0  0
   -2.7254   -3.8933    3.6929 F   0  0  0  0  0  0  0  0  0  0  0  0
   -0.8002    1.8168    9.9026 F   0  0  0  0  0  0  0  0  0  0  0  0
   -2.6709    2.8192   11.5980 F   0  0  0  0  0  0  0  0  0  0  0  0
   -4.1457    1.1610    7.5886 F   0  0  0  0  0  0  0  0  0  0  0  0
   -5.3118    1.3449   10.0266 F   0  0  0  0  0  0  0  0  0  0  0  0
   -2.0657   -0.9172   11.0037 F   0  0  0  0  0  0  0  0  0  0  0  0
   -4.5057   -1.9252   10.3741 F   0  0  0  0  0  0  0  0  0  0  0  0
   -1.6663    0.8192    5.9347 F   0  0  0  0  0  0  0  0  0  0  0  0
    0.7325    1.2149    7.1544 F   0  0  0  0  0  0  0  0  0  0  0  0
   -4.6540   -3.5359    6.4205 F   0  0  0  0  0  0  0  0  0  0  0  0
   -4.4804   -0.8345    6.0367 F   0  0  0  0  0  0  0  0  0  0  0  0
   -3.6082    5.3889    9.4577 F   0  0  0  0  0  0  0  0  0  0  0  0
   -0.9040    5.2460    9.2650 F   0  0  0  0  0  0  0  0  0  0  0  0
   -0.7965   -1.4149    7.7380 F   0  0  0  0  0  0  0  0  0  0  0  0
   -1.9844   -3.6955    8.6061 F   0  0  0  0  0  0  0  0  0  0  0  0
  1  2  1  0
  1  3  1  0
  2  7  1  0
  2 14  1  0
  2 15  1  0
  3  4  1  0
  3 16  1  0
  3 17  1  0
  4  5  1  0
  4 30  1  0
  4 31  1  0
  5  8  1  0
  5 18  1  0
  5 19  1  0
  6  7  1  0
  6  9  1  0
  6 32  1  0
  6 33  1  0
  7 22  1  0
  7 23  1  0
  8 10  1  0
  8 20  1  0
  8 21  1  0
  9 11  1  0
  9 36  1  0
  9 37  1  0
 10 12  1  0
 10 34  1  0
 10 35  1  0
 11 13  1  0
 11 28  1  0
 11 29  1  0
 12 13  1  0
 12 24  1  0
 12 25  1  0
 13 26  1  0
 13 27  1  0
M  CHG  1   1   1
M  RAD  1   1   2
M  END
$$$$

     RDKit          3D

 37 37  0  0  0  0  0  0  0  0999 V2000
   -0.3590   -0.1119    2.5407 S   0  0  0  0  0  2  0  0  0  0  0  0
    1.0733    0.8020    3.8086 Si  0  0  0  0  0  4  0  0  0  0  0  0
   -1.2994   -1.8056    3.4441 Si  0  0  0  0  0  4  0  0  0  0  0  0
    0.1932   -3.3984    3.7985 Si  0  0  0  0  0  4  0  0  0  0  0  0
   -0.5906   -5.0882    4.9697 Si  0  0  0  0  0  4  0  0  0  0  0  0
    1.1942    2.1942    7.2124 Si  0  0  0  0  0  4  0  0  0  0  0  0
    0.0762    2.1436    5.3255 Si  0  0  0  0  0  4  0  0  0  0  0  0
   -1.9004   -4.4868    6.6349 Si  0  0  0  0  0  4  0  0  0  0  0  0
   -0.0097    2.2575    9.0259 Si  0  0  0  0  0  4  0  0  0  0  0  0
   -0.7216   -3.8250    8.4307 Si  0  0  0  0  0  4  0  0  0  0  0  0
   -2.1126    1.6104    8.7768 Si  0  0  0  0  0  4  0  0  0  0  0  0
   -0.3737   -1.6034    8.2716 Si  0  0  0  0  0  4  0  0  0  0  0  0
   -2.3188   -0.5989    8.6834 Si  0  0  0  0  0  4  0  0  0  0  0  0
    2.0998    1.7547    2.8330 F   0  0  0  0  0  0  0  0  0  0  0  0
    2.0561   -0.3026    4.6027 F   0  0  0  0  0  0  0  0  0  0  0  0
   -2.1329   -1.3552    4.8101 F   0  0  0  0  0  0  0  0  0  0  0  0
   -2.4386   -2.4015    2.3246 F   0  0  0  0  0  0  0  0  0  0  0  0
   -1.4295   -6.2088    4.0066 F   0  0  0  0  0  0  0  0  0  0  0  0
    0.7354   -5.9428    5.6220 F   0  0  0  0  0  0  0  0  0  0  0  0
   -2.7879   -5.8584    7.1311 F   0  0  0  0  0  0  0  0  0  0  0  0
   -3.0175   -3.3148    6.2128 F   0  0  0  0  0  0  0  0  0  0  0  0
   -1.4945    1.6250    5.4644 F   0  0  0  0  0  0  0  0  0  0  0  0
    0.0455    3.7064    4.6412 F   0  0  0  0  0  0  0  0  0  0  0  0
    0.1745   -1.2903    6.7263 F   0  0  0  0  0  0  0  0  0  0  0  0
    0.7901   -1.1767    9.3852 F   0  0  0  0  0  0  0  0  0  0  0  0
   -3.4283   -1.0757    7.5015 F   0  0  0  0  0  0  0  0  0  0  0  0
   -2.8985   -1.2318   10.1588 F   0  0  0  0  0  0  0  0  0  0  0  0
   -2.9562    2.1278   10.1723 F   0  0  0  0  0  0  0  0  0  0  0  0
   -2.8663    2.3707    7.4813 F   0  0  0  0  0  0  0  0  0  0  0  0
    1.5971   -2.8101    4.5426 F   0  0  0  0  0  0  0  0  0  0  0  0
    0.6867   -3.9925    2.2756 F   0  0  0  0  0  0  0  0  0  0  0  0
    2.2318    3.5505    7.1886 F   0  0  0  0  0  0  0  0  0  0  0  0
    2.2288    0.8371    7.2629 F   0  0  0  0  0  0  0  0  0  0  0  0
   -1.5401   -4.1565    9.8552 F   0  0  0  0  0  0  0  0  0  0  0  0
    0.7800   -4.5724    8.4196 F   0  0  0  0  0  0  0  0  0  0  0  0
   -0.0318    3.8376    9.6707 F   0  0  0  0  0  0  0  0  0  0  0  0
    0.6973    1.2809   10.2214 F   0  0  0  0  0  0  0  0  0  0  0  0
  1  2  1  0
  1  3  1  0
  2  7  1  0
  2 14  1  0
  2 15  1  0
  3  4  1  0
  3 16  1  0
  3 17  1  0
  4  5  1  0
  4 30  1  0
  4 31  1  0
  5  8  1  0
  5 18  1  0
  5 19  1  0
  6  7  1  0
  6  9  1  0
  6 32  1  0
  6 33  1  0
  7 22  1  0
  7 23  1  0
  8 10  1  0
  8 20  1  0
  8 21  1  0
  9 11  1  0
  9 36  1  0
  9 37  1  0
 10 12  1  0
 10 34  1  0
 10 35  1  0
 11 13  1  0
 11 28  1  0
 11 29  1  0
 12 13  1  0
 12 24  1  0
 12 25  1  0
 13 26  1  0
 13 27  1  0
M  CHG  1   1   1
M  RAD  1   1   2
M  END
$$$$

     RDKit          3D

 37 37  0  0  0  0  0  0  0  0999 V2000
   -0.3590   -0.1119    2.5407 S   0  0  0  0  0  2  0  0  0  0  0  0
    0.8973    1.4986    3.1572 Si  0  0  0  0  0  4  0  0  0  0  0  0
   -1.9993   -0.4076    3.8750 Si  0  0  0  0  0  4  0  0  0  0  0  0
   -3.4472    1.2713    3.8203 Si  0  0  0  0  0  4  0  0  0  0  0  0
   -4.5310    1.5183    5.7426 Si  0  0  0  0  0  4  0  0  0  0  0  0
    3.1648    2.5721    5.8615 Si  0  0  0  0  0  4  0  0  0  0  0  0
    2.0366    0.9105    4.9632 Si  0  0  0  0  0  4  0  0  0  0  0  0
   -3.1821    1.6113    7.4837 Si  0  0  0  0  0  4  0  0  0  0  0  0
    2.1110    4.5143    5.7508 Si  0  0  0  0  0  4  0  0  0  0  0  0
   -3.2694    3.6160    8.4897 Si  0  0  0  0  0  4  0  0  0  0  0  0
    0.2598    4.5818    6.9261 Si  0  0  0  0  0  4  0  0  0  0  0  0
   -1.5596    3.8042    9.9301 Si  0  0  0  0  0  4  0  0  0  0  0  0
    0.3508    3.4108    8.7989 Si  0  0  0  0  0  4  0  0  0  0  0  0
    0.0509    2.9314    3.3578 F   0  0  0  0  0  0  0  0  0  0  0  0
    2.0229    1.7654    1.9024 F   0  0  0  0  0  0  0  0  0  0  0  0
   -1.4862   -0.6929    5.4575 F   0  0  0  0  0  0  0  0  0  0  0  0
   -2.8169   -1.8102    3.3724 F   0  0  0  0  0  0  0  0  0  0  0  0
   -5.5714    0.1810    5.9187 F   0  0  0  0  0  0  0  0  0  0  0  0
   -5.5012    2.8861    5.6338 F   0  0  0  0  0  0  0  0  0  0  0  0
   -3.5833    0.4532    8.6707 F   0  0  0  0  0  0  0  0  0  0  0  0
   -1.6095    1.3306    7.0272 F   0  0  0  0  0  0  0  0  0  0  0  0
    0.9815    0.1656    6.0630 F   0  0  0  0  0  0  0  0  0  0  0  0
    3.1493   -0.2976    4.4970 F   0  0  0  0  0  0  0  0  0  0  0  0
   -1.5554    5.4136   10.4708 F   0  0  0  0  0  0  0  0  0  0  0  0
   -1.7659    2.7193   11.1741 F   0  0  0  0  0  0  0  0  0  0  0  0
    1.6212    3.9528    9.7518 F   0  0  0  0  0  0  0  0  0  0  0  0
    0.4557    1.7682    8.5440 F   0  0  0  0  0  0  0  0  0  0  0  0
   -1.0378    4.0806    5.9731 F   0  0  0  0  0  0  0  0  0  0  0  0
   -0.0546    6.2063    7.3448 F   0  0  0  0  0  0  0  0  0  0  0  0
   -2.6783    2.6898    3.3342 F   0  0  0  0  0  0  0  0  0  0  0  0
   -4.6178    0.9273    2.6251 F   0  0  0  0  0  0  0  0  0  0  0  0
    4.6372    2.7364    5.0213 F   0  0  0  0  0  0  0  0  0  0  0  0
    3.5542    2.1954    7.4506 F   0  0  0  0  0  0  0  0  0  0  0  0
   -4.7055    3.6546    9.3828 F   0  0  0  0  0  0  0  0  0  0  0  0
   -3.2426    4.8625    7.3523 F   0  0  0  0  0  0  0  0  0  0  0  0
    1.7712    4.8989    4.1483 F   0  0  0  0  0  0  0  0  0  0  0  0
    3.1699    5.7127    6.3273 F   0  0  0  0  0  0  0  0  0  0  0  0
  1  2  1  0
  1  3  1  0
  2  7  1  0
  2 14  1  0
  2 15  1  0
  3  4  1  0
  3 16  1  0
  3 17  1  0
  4  5  1  0
  4 30  1  0
  4 31  1  0
  5  8  1  0
  5 18  1  0
  5 19  1  0
  6  7  1  0
  6  9  1  0
  6 32  1  0
  6 33  1  0
  7 22  1  0
  7 23  1  0
  8 10  1  0
  8 20  1  0
  8 21  1  0
  9 11  1  0
  9 36  1  0
  9 37  1  0
 10 12  1  0
 10 34  1  0
 10 35  1  0
 11 13  1  0
 11 28  1  0
 11 29  1  0
 12 13  1  0
 12 24  1  0
 12 25  1  0
 13 26  1  0
 13 27  1  0
M  CHG  1   1   1
M  RAD  1   1   2
M  END
$$$$

     RDKit          3D

 37 37  0  0  0  0  0  0  0  0999 V2000
   -0.3590   -0.1119    2.5407 S   0  0  0  0  0  2  0  0  0  0  0  0
   -1.9480   -0.3858    3.9170 Si  0  0  0  0  0  4  0  0  0  0  0  0
    0.9985    1.4254    3.1430 Si  0  0  0  0  0  4  0  0  0  0  0  0
   -0.0347    3.3806    3.1613 Si  0  0  0  0  0  4  0  0  0  0  0  0
    1.1762    5.0030    4.0233 Si  0  0  0  0  0  4  0  0  0  0  0  0
   -2.3432   -1.0534    7.5138 Si  0  0  0  0  0  4  0  0  0  0  0  0
   -1.2899   -1.6338    5.6790 Si  0  0  0  0  0  4  0  0  0  0  0  0
    2.3271    4.4064    5.8038 Si  0  0  0  0  0  4  0  0  0  0  0  0
   -1.1553   -1.0847    9.3387 Si  0  0  0  0  0  4  0  0  0  0  0  0
    1.0586    4.4048    7.6593 Si  0  0  0  0  0  4  0  0  0  0  0  0
    1.0369   -1.0467    9.0297 Si  0  0  0  0  0  4  0  0  0  0  0  0
    0.1568    2.3529    7.9005 Si  0  0  0  0  0  4  0  0  0  0  0  0
    1.7930    0.9830    8.5391 Si  0  0  0  0  0  4  0  0  0  0  0  0
   -3.2030   -1.2108    3.1061 F   0  0  0  0  0  0  0  0  0  0  0  0
   -2.6020    1.0574    4.4700 F   0  0  0  0  0  0  0  0  0  0  0  0
    1.7205    1.0378    4.5893 F   0  0  0  0  0  0  0  0  0  0  0  0
    2.2269    1.4984    1.9630 F   0  0  0  0  0  0  0  0  0  0  0  0
    2.2501    5.6790    2.8935 F   0  0  0  0  0  0  0  0  0  0  0  0
    0.1239    6.2694    4.4739 F   0  0  0  0  0  0  0  0  0  0  0  0
    3.5432    5.5765    6.0634 F   0  0  0  0  0  0  0  0  0  0  0  0
    3.1021    2.9334    5.6322 F   0  0  0  0  0  0  0  0  0  0  0  0
    0.3634   -1.5123    5.7611 F   0  0  0  0  0  0  0  0  0  0  0  0
   -1.6703   -3.2518    5.2931 F   0  0  0  0  0  0  0  0  0  0  0  0
   -0.4862    1.9103    6.4248 F   0  0  0  0  0  0  0  0  0  0  0  0
   -1.0527    2.4458    9.0429 F   0  0  0  0  0  0  0  0  0  0  0  0
    2.9612    0.9390    7.3189 F   0  0  0  0  0  0  0  0  0  0  0  0
    2.5458    1.7086    9.8882 F   0  0  0  0  0  0  0  0  0  0  0  0
    1.7523   -1.4953   10.5176 F   0  0  0  0  0  0  0  0  0  0  0  0
    1.5455   -2.1971    7.9151 F   0  0  0  0  0  0  0  0  0  0  0  0
   -1.5252    3.3128    3.9640 F   0  0  0  0  0  0  0  0  0  0  0  0
   -0.3948    3.7902    1.5432 F   0  0  0  0  0  0  0  0  0  0  0  0
   -3.6904   -2.0842    7.7118 F   0  0  0  0  0  0  0  0  0  0  0  0
   -2.9996    0.5064    7.2885 F   0  0  0  0  0  0  0  0  0  0  0  0
    1.9650    4.7745    9.0197 F   0  0  0  0  0  0  0  0  0  0  0  0
   -0.2050    5.4920    7.4729 F   0  0  0  0  0  0  0  0  0  0  0  0
   -1.5196   -2.4731   10.2621 F   0  0  0  0  0  0  0  0  0  0  0  0
   -1.5663    0.2410   10.3167 F   0  0  0  0  0  0  0  0  0  0  0  0
  1  2  1  0
  1  3  1  0
  2  7  1  0
  2 14  1  0
  2 15  1  0
  3  4  1  0
  3 16  1  0
  3 17  1  0
  4  5  1  0
  4 30  1  0
  4 31  1  0
  5  8  1  0
  5 18  1  0
  5 19  1  0
  6  7  1  0
  6  9  1  0
  6 32  1  0
  6 33  1  0
  7 22  1  0
  7 23  1  0
  8 10  1  0
  8 20  1  0
  8 21  1  0
  9 11  1  0
  9 36  1  0
  9 37  1  0
 10 12  1  0
 10 34  1  0
 10 35  1  0
 11 13  1  0
 11 28  1  0
 11 29  1  0
 12 13  1  0
 12 24  1  0
 12 25  1  0
 13 26  1  0
 13 27  1  0
M  CHG  1   1   1
M  RAD  1   1   2
M  END
$$$$

     RDKit          3D

 37 37  0  0  0  0  0  0  0  0999 V2000
   -0.3590   -0.1119    2.5407 S   0  0  0  0  0  2  0  0  0  0  0  0
   -1.3688    1.6909    2.8081 Si  0  0  0  0  0  4  0  0  0  0  0  0
   -0.7387   -1.6338    3.9286 Si  0  0  0  0  0  4  0  0  0  0  0  0
   -2.8599   -2.2179    4.1131 Si  0  0  0  0  0  4  0  0  0  0  0  0
   -3.2115   -3.2439    6.0446 Si  0  0  0  0  0  4  0  0  0  0  0  0
    0.0194    3.1294    5.9245 Si  0  0  0  0  0  4  0  0  0  0  0  0
   -1.7351    2.3020    4.8783 Si  0  0  0  0  0  4  0  0  0  0  0  0
   -1.8160   -2.6686    7.6438 Si  0  0  0  0  0  4  0  0  0  0  0  0
    1.8228    1.8484    5.8195 Si  0  0  0  0  0  4  0  0  0  0  0  0
    0.0704   -3.8218    7.6313 Si  0  0  0  0  0  4  0  0  0  0  0  0
    2.1514    0.7621    7.7543 Si  0  0  0  0  0  4  0  0  0  0  0  0
    1.7135   -2.7645    8.7069 Si  0  0  0  0  0  4  0  0  0  0  0  0
    2.8024   -1.3423    7.3978 Si  0  0  0  0  0  4  0  0  0  0  0  0
   -2.8766    1.6099    2.0097 F   0  0  0  0  0  0  0  0  0  0  0  0
   -0.5093    2.9376    2.0169 F   0  0  0  0  0  0  0  0  0  0  0  0
   -0.2294   -1.1427    5.4622 F   0  0  0  0  0  0  0  0  0  0  0  0
    0.1391   -3.0054    3.4117 F   0  0  0  0  0  0  0  0  0  0  0  0
   -4.7878   -2.8744    6.5519 F   0  0  0  0  0  0  0  0  0  0  0  0
   -3.1355   -4.9301    5.8447 F   0  0  0  0  0  0  0  0  0  0  0  0
   -1.4856   -1.0183    7.6803 F   0  0  0  0  0  0  0  0  0  0  0  0
   -2.5967   -3.0074    9.1285 F   0  0  0  0  0  0  0  0  0  0  0  0
   -2.4776    1.0463    5.7430 F   0  0  0  0  0  0  0  0  0  0  0  0
   -2.9015    3.5522    4.8261 F   0  0  0  0  0  0  0  0  0  0  0  0
    1.1099   -1.9317   10.0502 F   0  0  0  0  0  0  0  0  0  0  0  0
    2.7785   -3.9396    9.2852 F   0  0  0  0  0  0  0  0  0  0  0  0
    4.4640   -1.4520    7.7828 F   0  0  0  0  0  0  0  0  0  0  0  0
    2.6896   -1.7632    5.7689 F   0  0  0  0  0  0  0  0  0  0  0  0
    3.2967    1.5649    8.7094 F   0  0  0  0  0  0  0  0  0  0  0  0
    0.7096    0.7740    8.6668 F   0  0  0  0  0  0  0  0  0  0  0  0
   -3.8471   -0.8851    3.8904 F   0  0  0  0  0  0  0  0  0  0  0  0
   -3.2295   -3.3244    2.8670 F   0  0  0  0  0  0  0  0  0  0  0  0
   -0.4017    3.3327    7.5583 F   0  0  0  0  0  0  0  0  0  0  0  0
    0.3170    4.6821    5.3139 F   0  0  0  0  0  0  0  0  0  0  0  0
   -0.2113   -5.2813    8.4749 F   0  0  0  0  0  0  0  0  0  0  0  0
    0.5781   -4.2465    6.1073 F   0  0  0  0  0  0  0  0  0  0  0  0
    1.8316    0.8199    4.5135 F   0  0  0  0  0  0  0  0  0  0  0  0
    3.1675    2.8868    5.6222 F   0  0  0  0  0  0  0  0  0  0  0  0
  1  2  1  0
  1  3  1  0
  2  7  1  0
  2 14  1  0
  2 15  1  0
  3  4  1  0
  3 16  1  0
  3 17  1  0
  4  5  1  0
  4 30  1  0
  4 31  1  0
  5  8  1  0
  5 18  1  0
  5 19  1  0
  6  7  1  0
  6  9  1  0
  6 32  1  0
  6 33  1  0
  7 22  1  0
  7 23  1  0
  8 10  1  0
  8 20  1  0
  8 21  1  0
  9 11  1  0
  9 36  1  0
  9 37  1  0
 10 12  1  0
 10 34  1  0
 10 35  1  0
 11 13  1  0
 11 28  1  0
 11 29  1  0
 12 13  1  0
 12 24  1  0
 12 25  1  0
 13 26  1  0
 13 27  1  0
M  CHG  1   1   1
M  RAD  1   1   2
M  END
$$$$

     RDKit          3D

 37 37  0  0  0  0  0  0  0  0999 V2000
   -0.3590   -0.1119    2.5407 S   0  0  0  0  0  2  0  0  0  0  0  0
   -1.0753    1.8280    2.7955 Si  0  0  0  0  0  4  0  0  0  0  0  0
   -0.9948   -1.5534    3.9207 Si  0  0  0  0  0  4  0  0  0  0  0  0
   -3.1841   -1.7950    4.0731 Si  0  0  0  0  0  4  0  0  0  0  0  0
   -3.7220   -2.7507    5.9977 Si  0  0  0  0  0  4  0  0  0  0  0  0
    0.4762    3.0324    5.9341 Si  0  0  0  0  0  4  0  0  0  0  0  0
   -1.3712    2.4914    4.8609 Si  0  0  0  0  0  4  0  0  0  0  0  0
   -2.2770   -2.4013    7.6182 Si  0  0  0  0  0  4  0  0  0  0  0  0
    2.0560    1.4826    5.8541 Si  0  0  0  0  0  4  0  0  0  0  0  0
   -0.5964   -3.8379    7.6321 Si  0  0  0  0  0  4  0  0  0  0  0  0
    2.1803    0.3600    7.7921 Si  0  0  0  0  0  4  0  0  0  0  0  0
    1.1769   -3.0522    8.7333 Si  0  0  0  0  0  4  0  0  0  0  0  0
    2.4960   -1.8211    7.4425 Si  0  0  0  0  0  4  0  0  0  0  0  0
   -2.5649    1.9853    1.9748 F   0  0  0  0  0  0  0  0  0  0  0  0
   -0.0181    2.9225    2.0188 F   0  0  0  0  0  0  0  0  0  0  0  0
   -0.4372   -1.1473    5.4624 F   0  0  0  0  0  0  0  0  0  0  0  0
   -0.3370   -3.0468    3.4151 F   0  0  0  0  0  0  0  0  0  0  0  0
   -5.2275   -2.1364    6.4821 F   0  0  0  0  0  0  0  0  0  0  0  0
   -3.9102   -4.4279    5.7967 F   0  0  0  0  0  0  0  0  0  0  0  0
   -1.6908   -0.8238    7.6618 F   0  0  0  0  0  0  0  0  0  0  0  0
   -3.1234   -2.6111    9.0907 F   0  0  0  0  0  0  0  0  0  0  0  0
   -2.3155    1.3696    5.7128 F   0  0  0  0  0  0  0  0  0  0  0  0
   -2.3248    3.9100    4.7931 F   0  0  0  0  0  0  0  0  0  0  0  0
    0.6925   -2.1332   10.0687 F   0  0  0  0  0  0  0  0  0  0  0  0
    2.0342   -4.3802    9.3258 F   0  0  0  0  0  0  0  0  0  0  0  0
    4.1136   -2.1914    7.8519 F   0  0  0  0  0  0  0  0  0  0  0  0
    2.3423   -2.2206    5.8116 F   0  0  0  0  0  0  0  0  0  0  0  0
    3.4236    0.9729    8.7651 F   0  0  0  0  0  0  0  0  0  0  0  0
    0.7450    0.6003    8.6832 F   0  0  0  0  0  0  0  0  0  0  0  0
   -3.9451   -0.3233    3.8375 F   0  0  0  0  0  0  0  0  0  0  0  0
   -3.7053   -2.8306    2.8201 F   0  0  0  0  0  0  0  0  0  0  0  0
    0.0682    3.3013    7.5618 F   0  0  0  0  0  0  0  0  0  0  0  0
    1.0242    4.5180    5.3300 F   0  0  0  0  0  0  0  0  0  0  0  0
   -1.1175   -5.2338    8.4695 F   0  0  0  0  0  0  0  0  0  0  0  0
   -0.1396   -4.3389    6.1153 F   0  0  0  0  0  0  0  0  0  0  0  0
    1.9217    0.4643    4.5470 F   0  0  0  0  0  0  0  0  0  0  0  0
    3.5506    2.2954    5.6782 F   0  0  0  0  0  0  0  0  0  0  0  0
  1  2  1  0
  1  3  1  0
  2  7  1  0
  2 14  1  0
  2 15  1  0
  3  4  1  0
  3 16  1  0
  3 17  1  0
  4  5  1  0
  4 30  1  0
  4 31  1  0
  5  8  1  0
  5 18  1  0
  5 19  1  0
  6  7  1  0
  6  9  1  0
  6 32  1  0
  6 33  1  0
  7 22  1  0
  7 23  1  0
  8 10  1  0
  8 20  1  0
  8 21  1  0
  9 11  1  0
  9 36  1  0
  9 37  1  0
 10 12  1  0
 10 34  1  0
 10 35  1  0
 11 13  1  0
 11 28  1  0
 11 29  1  0
 12 13  1  0
 12 24  1  0
 12 25  1  0
 13 26  1  0
 13 27  1  0
M  CHG  1   1   1
M  RAD  1   1   2
M  END
$$$$

     RDKit          3D

 37 37  0  0  0  0  0  0  0  0999 V2000
   -0.3590   -0.1119    2.5407 S   0  0  0  0  0  2  0  0  0  0  0  0
   -2.3047   -0.6102    3.1749 Si  0  0  0  0  0  4  0  0  0  0  0  0
    0.8811    0.7865    3.9564 Si  0  0  0  0  0  4  0  0  0  0  0  0
   -0.1198    1.5434    5.7609 Si  0  0  0  0  0  4  0  0  0  0  0  0
   -0.3220    3.7756    5.7458 Si  0  0  0  0  0  4  0  0  0  0  0  0
   -3.6968   -2.0507    6.2714 Si  0  0  0  0  0  4  0  0  0  0  0  0
   -2.3703   -2.3876    4.5031 Si  0  0  0  0  0  4  0  0  0  0  0  0
   -2.2815    4.3780    6.6860 Si  0  0  0  0  0  4  0  0  0  0  0  0
   -2.4353   -2.0171    8.0793 Si  0  0  0  0  0  4  0  0  0  0  0  0
   -2.1206    4.5161    8.8739 Si  0  0  0  0  0  4  0  0  0  0  0  0
   -3.2911   -0.8580    9.7501 Si  0  0  0  0  0  4  0  0  0  0  0  0
   -2.2520    2.6090    9.9399 Si  0  0  0  0  0  4  0  0  0  0  0  0
   -3.7962    1.2253    9.2151 Si  0  0  0  0  0  4  0  0  0  0  0  0
   -3.2116   -1.0071    1.7802 F   0  0  0  0  0  0  0  0  0  0  0  0
   -3.1221    0.7168    3.8659 F   0  0  0  0  0  0  0  0  0  0  0  0
    1.7179    2.0836    3.2280 F   0  0  0  0  0  0  0  0  0  0  0  0
    2.0903   -0.3187    4.4354 F   0  0  0  0  0  0  0  0  0  0  0  0
   -0.3845    4.2673    4.1332 F   0  0  0  0  0  0  0  0  0  0  0  0
    0.9303    4.5059    6.5873 F   0  0  0  0  0  0  0  0  0  0  0  0
   -2.5967    5.9482    6.0878 F   0  0  0  0  0  0  0  0  0  0  0  0
   -3.5169    3.3974    6.1523 F   0  0  0  0  0  0  0  0  0  0  0  0
   -0.7828   -2.7310    4.9850 F   0  0  0  0  0  0  0  0  0  0  0  0
   -2.9272   -3.7632    3.6804 F   0  0  0  0  0  0  0  0  0  0  0  0
   -0.7344    1.8379    9.9007 F   0  0  0  0  0  0  0  0  0  0  0  0
   -2.5580    2.9377   11.5870 F   0  0  0  0  0  0  0  0  0  0  0  0
   -4.0983    1.3593    7.5700 F   0  0  0  0  0  0  0  0  0  0  0  0
   -5.2651    1.6046   10.0022 F   0  0  0  0  0  0  0  0  0  0  0  0
   -2.1477   -0.8255   10.9949 F   0  0  0  0  0  0  0  0  0  0  0  0
   -4.6343   -1.7034   10.3531 F   0  0  0  0  0  0  0  0  0  0  0  0
   -1.6322    0.8871    5.9284 F   0  0  0  0  0  0  0  0  0  0  0  0
    0.7781    1.1558    7.1600 F   0  0  0  0  0  0  0  0  0  0  0  0
   -4.8477   -3.3044    6.3986 F   0  0  0  0  0  0  0  0  0  0  0  0
   -4.5301   -0.6159    6.0161 F   0  0  0  0  0  0  0  0  0  0  0  0
   -3.3479    5.5531    9.4426 F   0  0  0  0  0  0  0  0  0  0  0  0
   -0.6540    5.2678    9.2632 F   0  0  0  0  0  0  0  0  0  0  0  0
   -0.8903   -1.3896    7.7355 F   0  0  0  0  0  0  0  0  0  0  0  0
   -2.2012   -3.6044    8.5973 F   0  0  0  0  0  0  0  0  0  0  0  0
  1  2  1  0
  1  3  1  0
  2  7  1  0
  2 14  1  0
  2 15  1  0
  3  4  1  0
  3 16  1  0
  3 17  1  0
  4  5  1  0
  4 30  1  0
  4 31  1  0
  5  8  1  0
  5 18  1  0
  5 19  1  0
  6  7  1  0
  6  9  1  0
  6 32  1  0
  6 33  1  0
  7 22  1  0
  7 23  1  0
  8 10  1  0
  8 20  1  0
  8 21  1  0
  9 11  1  0
  9 36  1  0
  9 37  1  0
 10 12  1  0
 10 34  1  0
 10 35  1  0
 11 13  1  0
 11 28  1  0
 11 29  1  0
 12 13  1  0
 12 24  1  0
 12 25  1  0
 13 26  1  0
 13 27  1  0
M  CHG  1   1   1
M  RAD  1   1   2
M  END
$$$$

     RDKit          3D

 37 37  0  0  0  0  0  0  0  0999 V2000
   -0.3590   -0.1119    2.5407 S   0  0  0  0  0  2  0  0  0  0  0  0
    1.1004    0.7512    3.8134 Si  0  0  0  0  0  4  0  0  0  0  0  0
   -1.3613   -1.7715    3.4409 Si  0  0  0  0  0  4  0  0  0  0  0  0
    0.0733   -3.4157    3.8000 Si  0  0  0  0  0  4  0  0  0  0  0  0
   -0.7732   -5.0770    4.9684 Si  0  0  0  0  0  4  0  0  0  0  0  0
    1.2588    2.1384    7.2177 Si  0  0  0  0  0  4  0  0  0  0  0  0
    0.1459    2.1270    5.3272 Si  0  0  0  0  0  4  0  0  0  0  0  0
   -2.0666   -4.4299    6.6294 Si  0  0  0  0  0  4  0  0  0  0  0  0
    0.0519    2.2439    9.0273 Si  0  0  0  0  0  4  0  0  0  0  0  0
   -0.8713   -3.8098    8.4291 Si  0  0  0  0  0  4  0  0  0  0  0  0
   -2.0716    1.6711    8.7711 Si  0  0  0  0  0  4  0  0  0  0  0  0
   -0.4450   -1.6018    8.2714 Si  0  0  0  0  0  4  0  0  0  0  0  0
   -2.3550   -0.5296    8.6769 Si  0  0  0  0  0  4  0  0  0  0  0  0
    2.1628    1.6672    2.8413 F   0  0  0  0  0  0  0  0  0  0  0  0
    2.0411   -0.3872    4.6106 F   0  0  0  0  0  0  0  0  0  0  0  0
   -2.1830   -1.2921    4.8041 F   0  0  0  0  0  0  0  0  0  0  0  0
   -2.5171   -2.3270    2.3175 F   0  0  0  0  0  0  0  0  0  0  0  0
   -1.6478   -6.1674    4.0025 F   0  0  0  0  0  0  0  0  0  0  0  0
    0.5198   -5.9776    5.6251 F   0  0  0  0  0  0  0  0  0  0  0  0
   -3.0033   -5.7695    7.1225 F   0  0  0  0  0  0  0  0  0  0  0  0
   -3.1404   -3.2193    6.2037 F   0  0  0  0  0  0  0  0  0  0  0  0
   -1.4424    1.6638    5.4608 F   0  0  0  0  0  0  0  0  0  0  0  0
    0.1724    3.6898    4.6428 F   0  0  0  0  0  0  0  0  0  0  0  0
    0.1189   -1.3082    6.7279 F   0  0  0  0  0  0  0  0  0  0  0  0
    0.7294   -1.2163    9.3888 F   0  0  0  0  0  0  0  0  0  0  0  0
   -3.4766   -0.9672    7.4913 F   0  0  0  0  0  0  0  0  0  0  0  0
   -2.9614   -1.1418   10.1502 F   0  0  0  0  0  0  0  0  0  0  0  0
   -2.9011    2.2178   10.1639 F   0  0  0  0  0  0  0  0  0  0  0  0
   -2.7938    2.4574    7.4732 F   0  0  0  0  0  0  0  0  0  0  0  0
    1.4946   -2.8771    4.5488 F   0  0  0  0  0  0  0  0  0  0  0  0
    0.5507   -4.0268    2.2787 F   0  0  0  0  0  0  0  0  0  0  0  0
    2.3435    3.4573    7.1975 F   0  0  0  0  0  0  0  0  0  0  0  0
    2.2449    0.7458    7.2715 F   0  0  0  0  0  0  0  0  0  0  0  0
   -1.7056   -4.1124    9.8509 F   0  0  0  0  0  0  0  0  0  0  0  0
    0.6032   -4.6095    8.4229 F   0  0  0  0  0  0  0  0  0  0  0  0
    0.0832    3.8238    9.6721 F   0  0  0  0  0  0  0  0  0  0  0  0
    0.7202    1.2431   10.2250 F   0  0  0  0  0  0  0  0  0  0  0  0
  1  2  1  0
  1  3  1  0
  2  7  1  0
  2 14  1  0
  2 15  1  0
  3  4  1  0
  3 16  1  0
  3 17  1  0
  4  5  1  0
  4 30  1  0
  4 31  1  0
  5  8  1  0
  5 18  1  0
  5 19  1  0
  6  7  1  0
  6  9  1  0
  6 32  1  0
  6 33  1  0
  7 22  1  0
  7 23  1  0
  8 10  1  0
  8 20  1  0
  8 21  1  0
  9 11  1  0
  9 36  1  0
  9 37  1  0
 10 12  1  0
 10 34  1  0
 10 35  1  0
 11 13  1  0
 11 28  1  0
 11 29  1  0
 12 13  1  0
 12 24  1  0
 12 25  1  0
 13 26  1  0
 13 27  1  0
M  CHG  1   1   1
M  RAD  1   1   2
M  END
$$$$

     RDKit          3D

 37 37  0  0  0  0  0  0  0  0999 V2000
   -0.3590   -0.1119    2.5407 S   0  0  0  0  0  2  0  0  0  0  0  0
    0.9510    1.4535    3.1615 Si  0  0  0  0  0  4  0  0  0  0  0  0
   -2.0130   -0.3498    3.8696 Si  0  0  0  0  0  4  0  0  0  0  0  0
   -3.4009    1.3790    3.8102 Si  0  0  0  0  0  4  0  0  0  0  0  0
   -4.4817    1.6639    5.7289 Si  0  0  0  0  0  4  0  0  0  0  0  0
    3.2460    2.4467    5.8733 Si  0  0  0  0  0  4  0  0  0  0  0  0
    2.0630    0.8257    4.9712 Si  0  0  0  0  0  4  0  0  0  0  0  0
   -3.1362    1.7095    7.4746 Si  0  0  0  0  0  4  0  0  0  0  0  0
    2.2614    4.4248    5.7593 Si  0  0  0  0  0  4  0  0  0  0  0  0
   -3.1563    3.7160    8.4804 Si  0  0  0  0  0  4  0  0  0  0  0  0
    0.4098    4.5573    6.9286 Si  0  0  0  0  0  4  0  0  0  0  0  0
   -1.4457    3.8441    9.9265 Si  0  0  0  0  0  4  0  0  0  0  0  0
    0.4534    3.3839    8.8015 Si  0  0  0  0  0  4  0  0  0  0  0  0
    0.1548    2.9151    3.3594 F   0  0  0  0  0  0  0  0  0  0  0  0
    2.0894    1.6806    1.9105 F   0  0  0  0  0  0  0  0  0  0  0  0
   -1.5156   -0.6529    5.4537 F   0  0  0  0  0  0  0  0  0  0  0  0
   -2.8778   -1.7228    3.3641 F   0  0  0  0  0  0  0  0  0  0  0  0
   -5.5690    0.3640    5.9015 F   0  0  0  0  0  0  0  0  0  0  0  0
   -5.4029    3.0649    5.6171 F   0  0  0  0  0  0  0  0  0  0  0  0
   -3.5817    0.5662    8.6601 F   0  0  0  0  0  0  0  0  0  0  0  0
   -1.5729    1.3737    7.0232 F   0  0  0  0  0  0  0  0  0  0  0  0
    0.9788    0.1184    6.0675 F   0  0  0  0  0  0  0  0  0  0  0  0
    3.1342   -0.4207    4.5086 F   0  0  0  0  0  0  0  0  0  0  0  0
   -1.3868    5.4524   10.4674 F   0  0  0  0  0  0  0  0  0  0  0  0
   -1.6941    2.7672   11.1697 F   0  0  0  0  0  0  0  0  0  0  0  0
    1.7390    3.8808    9.7587 F   0  0  0  0  0  0  0  0  0  0  0  0
    0.5014    1.7386    8.5469 F   0  0  0  0  0  0  0  0  0  0  0  0
   -0.9014    4.1020    5.9712 F   0  0  0  0  0  0  0  0  0  0  0  0
    0.1513    6.1918    7.3464 F   0  0  0  0  0  0  0  0  0  0  0  0
   -2.5810    2.7695    3.3268 F   0  0  0  0  0  0  0  0  0  0  0  0
   -4.5789    1.0762    2.6112 F   0  0  0  0  0  0  0  0  0  0  0  0
    4.7260    2.5592    5.0381 F   0  0  0  0  0  0  0  0  0  0  0  0
    3.6166    2.0566    7.4637 F   0  0  0  0  0  0  0  0  0  0  0  0
   -4.5931    3.8051    9.3688 F   0  0  0  0  0  0  0  0  0  0  0  0
   -3.0820    4.9608    7.3432 F   0  0  0  0  0  0  0  0  0  0  0  0
    1.9406    4.8210    4.1558 F   0  0  0  0  0  0  0  0  0  0  0  0
    3.3597    5.5852    6.3394 F   0  0  0  0  0  0  0  0  0  0  0  0
  1  2  1  0
  1  3  1  0
  2  7  1  0
  2 14  1  0
  2 15  1  0
  3  4  1  0
  3 16  1  0
  3 17  1  0
  4  5  1  0
  4 30  1  0
  4 31  1  0
  5  8  1  0
  5 18  1  0
  5 19  1  0
  6  7  1  0
  6  9  1  0
  6 32  1  0
  6 33  1  0
  7 22  1  0
  7 23  1  0
  8 10  1  0
  8 20  1  0
  8 21  1  0
  9 11  1  0
  9 36  1  0
  9 37  1  0
 10 12  1  0
 10 34  1  0
 10 35  1  0
 11 13  1  0
 11 28  1  0
 11 29  1  0
 12 13  1  0
 12 24  1  0
 12 25  1  0
 13 26  1  0
 13 27  1  0
M  CHG  1   1   1
M  RAD  1   1   2
M  END
$$$$
