
     RDKit          3D

 37 37  0  0  0  0  0  0  0  0999 V2000
    0.3895   -0.1413   -4.1832 S   0  0  0  0  0  2  0  0  0  0  0  0
   -0.0629    1.8086   -4.6624 Si  0  0  0  0  0  4  0  0  0  0  0  0
    0.3276   -1.6091   -5.6675 Si  0  0  0  0  0  4  0  0  0  0  0  0
    2.3088   -1.9557   -6.6499 Si  0  0  0  0  0  4  0  0  0  0  0  0
    2.1461   -1.8044   -8.8598 Si  0  0  0  0  0  4  0  0  0  0  0  0
   -1.1954    4.2653   -7.0233 Si  0  0  0  0  0  4  0  0  0  0  0  0
   -1.4653    2.1621   -6.3229 Si  0  0  0  0  0  4  0  0  0  0  0  0
    3.6031   -0.3834   -9.7350 Si  0  0  0  0  0  4  0  0  0  0  0  0
   -0.7774    4.3998   -9.1929 Si  0  0  0  0  0  4  0  0  0  0  0  0
    4.0580    1.3283   -8.4442 Si  0  0  0  0  0  4  0  0  0  0  0  0
    0.4297    2.7110   -9.9616 Si  0  0  0  0  0  4  0  0  0  0  0  0
    3.9448    3.2868   -9.4787 Si  0  0  0  0  0  4  0  0  0  0  0  0
    2.3068    3.3995  -10.9512 Si  0  0  0  0  0  4  0  0  0  0  0  0
    1.3658    2.6863   -4.9966 F   0  0  0  0  0  0  0  0  0  0  0  0
   -0.7187    2.5914   -3.2885 F   0  0  0  0  0  0  0  0  0  0  0  0
   -0.7999   -1.3241   -6.8834 F   0  0  0  0  0  0  0  0  0  0  0  0
   -0.1475   -3.0744   -4.9347 F   0  0  0  0  0  0  0  0  0  0  0  0
    2.3686   -3.3097   -9.6092 F   0  0  0  0  0  0  0  0  0  0  0  0
    0.5517   -1.3369   -9.2302 F   0  0  0  0  0  0  0  0  0  0  0  0
    3.0037    0.0812  -11.2566 F   0  0  0  0  0  0  0  0  0  0  0  0
    5.0441   -1.2418  -10.0388 F   0  0  0  0  0  0  0  0  0  0  0  0
   -3.0473    2.0070   -5.7107 F   0  0  0  0  0  0  0  0  0  0  0  0
   -1.3264    1.0724   -7.5775 F   0  0  0  0  0  0  0  0  0  0  0  0
    3.6852    4.5199   -8.3265 F   0  0  0  0  0  0  0  0  0  0  0  0
    5.4015    3.6737  -10.2608 F   0  0  0  0  0  0  0  0  0  0  0  0
    2.6266    2.5334  -12.3544 F   0  0  0  0  0  0  0  0  0  0  0  0
    2.1024    5.0198  -11.4010 F   0  0  0  0  0  0  0  0  0  0  0  0
   -0.5124    1.8862  -11.1187 F   0  0  0  0  0  0  0  0  0  0  0  0
    0.8548    1.6156   -8.7894 F   0  0  0  0  0  0  0  0  0  0  0  0
    3.4741   -0.8884   -6.0378 F   0  0  0  0  0  0  0  0  0  0  0  0
    2.8915   -3.5168   -6.2967 F   0  0  0  0  0  0  0  0  0  0  0  0
   -2.6013    5.1831   -6.7124 F   0  0  0  0  0  0  0  0  0  0  0  0
    0.0607    5.0374   -6.2032 F   0  0  0  0  0  0  0  0  0  0  0  0
    5.6177    1.1890   -7.7902 F   0  0  0  0  0  0  0  0  0  0  0  0
    2.9846    1.3566   -7.1436 F   0  0  0  0  0  0  0  0  0  0  0  0
    0.0891    5.8224   -9.4696 F   0  0  0  0  0  0  0  0  0  0  0  0
   -2.2487    4.5504  -10.0104 F   0  0  0  0  0  0  0  0  0  0  0  0
  1  2  1  0
  1  3  1  0
  2  7  1  0
  2 14  1  0
  2 15  1  0
  3  4  1  0
  3 16  1  0
  3 17  1  0
  4  5  1  0
  4 30  1  0
  4 31  1  0
  5  8  1  0
  5 18  1  0
  5 19  1  0
  6  7  1  0
  6  9  1  0
  6 32  1  0
  6 33  1  0
  7 22  1  0
  7 23  1  0
  8 10  1  0
  8 20  1  0
  8 21  1  0
  9 11  1  0
  9 36  1  0
  9 37  1  0
 10 12  1  0
 10 34  1  0
 10 35  1  0
 11 13  1  0
 11 28  1  0
 11 29  1  0
 12 13  1  0
 12 24  1  0
 12 25  1  0
 13 26  1  0
 13 27  1  0
M  CHG  1   1   1
M  RAD  1   1   2
M  END
$$$$

     RDKit          3D

 37 37  0  0  0  0  0  0  0  0999 V2000
    0.3895   -0.1413   -4.1832 S   0  0  0  0  0  2  0  0  0  0  0  0
    2.2369    0.6671   -4.5959 Si  0  0  0  0  0  4  0  0  0  0  0  0
   -1.0002   -0.3780   -5.7240 Si  0  0  0  0  0  4  0  0  0  0  0  0
   -0.9244   -2.4012   -6.6785 Si  0  0  0  0  0  4  0  0  0  0  0  0
   -0.7146   -2.2407   -8.8838 Si  0  0  0  0  0  4  0  0  0  0  0  0
    4.5313    2.2155   -6.8828 Si  0  0  0  0  0  4  0  0  0  0  0  0
    2.3876    2.0899   -6.2697 Si  0  0  0  0  0  4  0  0  0  0  0  0
    0.9917   -3.4123   -9.6737 Si  0  0  0  0  0  4  0  0  0  0  0  0
    4.8328    1.8033   -9.0367 Si  0  0  0  0  0  4  0  0  0  0  0  0
    2.7032   -3.5175   -8.3089 Si  0  0  0  0  0  4  0  0  0  0  0  0
    3.4365    0.2878   -9.8452 Si  0  0  0  0  0  4  0  0  0  0  0  0
    4.6464   -3.0476   -9.2692 Si  0  0  0  0  0  4  0  0  0  0  0  0
    4.5084   -1.4368  -10.7692 Si  0  0  0  0  0  4  0  0  0  0  0  0
    3.3822   -0.5731   -4.8669 F   0  0  0  0  0  0  0  0  0  0  0  0
    2.8234    1.4769   -3.2065 F   0  0  0  0  0  0  0  0  0  0  0  0
   -0.8832    0.7677   -6.9506 F   0  0  0  0  0  0  0  0  0  0  0  0
   -2.5583   -0.1805   -5.0580 F   0  0  0  0  0  0  0  0  0  0  0  0
   -2.1179   -2.7544   -9.6860 F   0  0  0  0  0  0  0  0  0  0  0  0
   -0.5421   -0.5913   -9.2682 F   0  0  0  0  0  0  0  0  0  0  0  0
    1.3976   -2.7548  -11.1882 F   0  0  0  0  0  0  0  0  0  0  0  0
    0.4349   -4.9938   -9.9811 F   0  0  0  0  0  0  0  0  0  0  0  0
    1.9105    3.6213   -5.6962 F   0  0  0  0  0  0  0  0  0  0  0  0
    1.3972    1.7309   -7.5624 F   0  0  0  0  0  0  0  0  0  0  0  0
    5.7588   -2.5440   -8.0758 F   0  0  0  0  0  0  0  0  0  0  0  0
    5.3341   -4.4142  -10.0059 F   0  0  0  0  0  0  0  0  0  0  0  0
    3.7778   -1.9330  -12.1980 F   0  0  0  0  0  0  0  0  0  0  0  0
    6.0782   -0.9341  -11.1602 F   0  0  0  0  0  0  0  0  0  0  0  0
    2.4974    1.0415  -11.0522 F   0  0  0  0  0  0  0  0  0  0  0  0
    2.3934   -0.3227   -8.7078 F   0  0  0  0  0  0  0  0  0  0  0  0
    0.3176   -3.3348   -6.0021 F   0  0  0  0  0  0  0  0  0  0  0  0
   -2.3604   -3.2652   -6.3741 F   0  0  0  0  0  0  0  0  0  0  0  0
    5.1526    3.7739   -6.5654 F   0  0  0  0  0  0  0  0  0  0  0  0
    5.4922    1.1393   -6.0082 F   0  0  0  0  0  0  0  0  0  0  0  0
    2.8344   -5.0669   -7.6292 F   0  0  0  0  0  0  0  0  0  0  0  0
    2.4736   -2.4420   -7.0303 F   0  0  0  0  0  0  0  0  0  0  0  0
    6.4040    1.2192   -9.2406 F   0  0  0  0  0  0  0  0  0  0  0  0
    4.7363    3.2659   -9.8775 F   0  0  0  0  0  0  0  0  0  0  0  0
  1  2  1  0
  1  3  1  0
  2  7  1  0
  2 14  1  0
  2 15  1  0
  3  4  1  0
  3 16  1  0
  3 17  1  0
  4  5  1  0
  4 30  1  0
  4 31  1  0
  5  8  1  0
  5 18  1  0
  5 19  1  0
  6  7  1  0
  6  9  1  0
  6 32  1  0
  6 33  1  0
  7 22  1  0
  7 23  1  0
  8 10  1  0
  8 20  1  0
  8 21  1  0
  9 11  1  0
  9 36  1  0
  9 37  1  0
 10 12  1  0
 10 34  1  0
 10 35  1  0
 11 13  1  0
 11 28  1  0
 11 29  1  0
 12 13  1  0
 12 24  1  0
 12 25  1  0
 13 26  1  0
 13 27  1  0
M  CHG  1   1   1
M  RAD  1   1   2
M  END
$$$$
