
     RDKit          3D

 37 37  0  0  0  0  0  0  0  0999 V2000
   -3.1944   -0.8819    2.3386 S   0  0  0  0  0  2  0  0  0  0  0  0
   -4.1170    1.0176    2.6698 Si  0  0  0  0  0  4  0  0  0  0  0  0
   -2.8651   -1.9639    4.1260 Si  0  0  0  0  0  4  0  0  0  0  0  0
   -3.9891   -3.9152    4.1385 Si  0  0  0  0  0  4  0  0  0  0  0  0
   -3.0292   -5.3956    5.4528 Si  0  0  0  0  0  4  0  0  0  0  0  0
   -4.0963    2.1393    6.1450 Si  0  0  0  0  0  4  0  0  0  0  0  0
   -5.2562    1.0914    4.5611 Si  0  0  0  0  0  4  0  0  0  0  0  0
   -3.4495   -5.0854    7.6006 Si  0  0  0  0  0  4  0  0  0  0  0  0
   -5.0309    1.9271    8.1427 Si  0  0  0  0  0  4  0  0  0  0  0  0
   -5.5933   -4.8558    8.0586 Si  0  0  0  0  0  4  0  0  0  0  0  0
   -4.6064   -0.0177    9.0937 Si  0  0  0  0  0  4  0  0  0  0  0  0
   -5.7817   -3.4014    9.7731 Si  0  0  0  0  0  4  0  0  0  0  0  0
   -6.3789   -1.3901    9.0158 Si  0  0  0  0  0  4  0  0  0  0  0  0
   -3.0055    2.2778    2.5911 F   0  0  0  0  0  0  0  0  0  0  0  0
   -5.2185    1.2660    1.3887 F   0  0  0  0  0  0  0  0  0  0  0  0
   -3.2909   -1.1309    5.5005 F   0  0  0  0  0  0  0  0  0  0  0  0
   -1.2162   -2.3695    4.2645 F   0  0  0  0  0  0  0  0  0  0  0  0
   -3.4339   -6.9751    4.9928 F   0  0  0  0  0  0  0  0  0  0  0  0
   -1.3381   -5.2697    5.2491 F   0  0  0  0  0  0  0  0  0  0  0  0
   -2.5444   -3.7693    8.1783 F   0  0  0  0  0  0  0  0  0  0  0  0
   -2.8788   -6.4494    8.4459 F   0  0  0  0  0  0  0  0  0  0  0  0
   -5.6965   -0.4517    4.9901 F   0  0  0  0  0  0  0  0  0  0  0  0
   -6.6911    1.9841    4.3221 F   0  0  0  0  0  0  0  0  0  0  0  0
   -6.9800   -3.9453   10.8373 F   0  0  0  0  0  0  0  0  0  0  0  0
   -4.3202   -3.3224   10.6141 F   0  0  0  0  0  0  0  0  0  0  0  0
   -6.9670   -1.5662    7.4706 F   0  0  0  0  0  0  0  0  0  0  0  0
   -7.6008   -0.7137    9.9684 F   0  0  0  0  0  0  0  0  0  0  0  0
   -3.2307   -0.7664    8.4782 F   0  0  0  0  0  0  0  0  0  0  0  0
   -4.2996    0.2539   10.7521 F   0  0  0  0  0  0  0  0  0  0  0  0
   -3.9334   -4.5000    2.5384 F   0  0  0  0  0  0  0  0  0  0  0  0
   -5.5842   -3.6133    4.5016 F   0  0  0  0  0  0  0  0  0  0  0  0
   -2.4772    1.6832    6.1521 F   0  0  0  0  0  0  0  0  0  0  0  0
   -4.1175    3.8028    5.7556 F   0  0  0  0  0  0  0  0  0  0  0  0
   -6.5039   -4.3129    6.7746 F   0  0  0  0  0  0  0  0  0  0  0  0
   -6.2803   -6.3300    8.5765 F   0  0  0  0  0  0  0  0  0  0  0  0
   -4.4187    3.1869    9.1179 F   0  0  0  0  0  0  0  0  0  0  0  0
   -6.6864    2.2166    7.9845 F   0  0  0  0  0  0  0  0  0  0  0  0
  1  2  1  0
  1  3  1  0
  2  7  1  0
  2 14  1  0
  2 15  1  0
  3  4  1  0
  3 16  1  0
  3 17  1  0
  4  5  1  0
  4 30  1  0
  4 31  1  0
  5  8  1  0
  5 18  1  0
  5 19  1  0
  6  7  1  0
  6  9  1  0
  6 32  1  0
  6 33  1  0
  7 22  1  0
  7 23  1  0
  8 10  1  0
  8 20  1  0
  8 21  1  0
  9 11  1  0
  9 36  1  0
  9 37  1  0
 10 12  1  0
 10 34  1  0
 10 35  1  0
 11 13  1  0
 11 28  1  0
 11 29  1  0
 12 13  1  0
 12 24  1  0
 12 25  1  0
 13 26  1  0
 13 27  1  0
M  CHG  1   1   1
M  RAD  1   1   2
M  END
$$$$

     RDKit          3D

 37 37  0  0  0  0  0  0  0  0999 V2000
   -3.1944   -0.8819    2.3386 S   0  0  0  0  0  2  0  0  0  0  0  0
   -2.9763    0.4927    3.9584 Si  0  0  0  0  0  4  0  0  0  0  0  0
   -5.2505   -0.9608    1.7266 Si  0  0  0  0  0  4  0  0  0  0  0  0
   -6.5205   -1.6660    3.3822 Si  0  0  0  0  0  4  0  0  0  0  0  0
   -6.6595   -3.8581    3.5415 Si  0  0  0  0  0  4  0  0  0  0  0  0
   -1.8346   -2.6638    5.2759 Si  0  0  0  0  0  4  0  0  0  0  0  0
   -1.8895   -0.4661    5.6865 Si  0  0  0  0  0  4  0  0  0  0  0  0
   -5.2970   -4.9500    2.2134 Si  0  0  0  0  0  4  0  0  0  0  0  0
   -1.6911   -3.7377    7.2151 Si  0  0  0  0  0  4  0  0  0  0  0  0
   -4.0118   -6.4364    3.2924 Si  0  0  0  0  0  4  0  0  0  0  0  0
   -1.9413   -5.9606    6.9235 Si  0  0  0  0  0  4  0  0  0  0  0  0
   -4.9217   -7.2224    5.1093 Si  0  0  0  0  0  4  0  0  0  0  0  0
   -4.0558   -6.5312    7.0049 Si  0  0  0  0  0  4  0  0  0  0  0  0
   -4.4617    1.0789    4.5003 F   0  0  0  0  0  0  0  0  0  0  0  0
   -2.0816    1.8559    3.4532 F   0  0  0  0  0  0  0  0  0  0  0  0
   -5.7086    0.6440    1.3615 F   0  0  0  0  0  0  0  0  0  0  0  0
   -5.4420   -1.8427    0.3136 F   0  0  0  0  0  0  0  0  0  0  0  0
   -8.2576   -4.3499    3.1970 F   0  0  0  0  0  0  0  0  0  0  0  0
   -6.3795   -4.2937    5.1503 F   0  0  0  0  0  0  0  0  0  0  0  0
   -6.1625   -5.7157    0.9576 F   0  0  0  0  0  0  0  0  0  0  0  0
   -4.2848   -3.8178    1.4332 F   0  0  0  0  0  0  0  0  0  0  0  0
   -0.3464    0.1405    5.8473 F   0  0  0  0  0  0  0  0  0  0  0  0
   -2.7981   -0.2533    7.1074 F   0  0  0  0  0  0  0  0  0  0  0  0
   -6.5852   -6.8302    5.1104 F   0  0  0  0  0  0  0  0  0  0  0  0
   -4.8794   -8.9319    5.0969 F   0  0  0  0  0  0  0  0  0  0  0  0
   -4.9445   -5.2051    7.6150 F   0  0  0  0  0  0  0  0  0  0  0  0
   -4.2699   -7.7570    8.1792 F   0  0  0  0  0  0  0  0  0  0  0  0
   -1.0989   -6.6612    8.2379 F   0  0  0  0  0  0  0  0  0  0  0  0
   -1.1417   -6.4821    5.5480 F   0  0  0  0  0  0  0  0  0  0  0  0
   -8.0765   -0.9975    3.1747 F   0  0  0  0  0  0  0  0  0  0  0  0
   -5.9270   -0.9816    4.8289 F   0  0  0  0  0  0  0  0  0  0  0  0
   -0.5201   -2.9969    4.2930 F   0  0  0  0  0  0  0  0  0  0  0  0
   -3.2936   -3.0299    4.5025 F   0  0  0  0  0  0  0  0  0  0  0  0
   -3.7581   -7.7149    2.1820 F   0  0  0  0  0  0  0  0  0  0  0  0
   -2.4948   -5.7439    3.5200 F   0  0  0  0  0  0  0  0  0  0  0  0
   -2.8697   -3.1559    8.2503 F   0  0  0  0  0  0  0  0  0  0  0  0
   -0.1851   -3.4016    7.8938 F   0  0  0  0  0  0  0  0  0  0  0  0
  1  2  1  0
  1  3  1  0
  2  7  1  0
  2 14  1  0
  2 15  1  0
  3  4  1  0
  3 16  1  0
  3 17  1  0
  4  5  1  0
  4 30  1  0
  4 31  1  0
  5  8  1  0
  5 18  1  0
  5 19  1  0
  6  7  1  0
  6  9  1  0
  6 32  1  0
  6 33  1  0
  7 22  1  0
  7 23  1  0
  8 10  1  0
  8 20  1  0
  8 21  1  0
  9 11  1  0
  9 36  1  0
  9 37  1  0
 10 12  1  0
 10 34  1  0
 10 35  1  0
 11 13  1  0
 11 28  1  0
 11 29  1  0
 12 13  1  0
 12 24  1  0
 12 25  1  0
 13 26  1  0
 13 27  1  0
M  CHG  1   1   1
M  RAD  1   1   2
M  END
$$$$

     RDKit          3D

 37 37  0  0  0  0  0  0  0  0999 V2000
   -3.1944   -0.8819    2.3386 S   0  0  0  0  0  2  0  0  0  0  0  0
   -3.0463    0.9350    3.4548 Si  0  0  0  0  0  4  0  0  0  0  0  0
   -3.3939   -2.5926    3.5665 Si  0  0  0  0  0  4  0  0  0  0  0  0
   -5.3355   -3.6687    3.1881 Si  0  0  0  0  0  4  0  0  0  0  0  0
   -5.1977   -5.8000    3.7164 Si  0  0  0  0  0  4  0  0  0  0  0  0
   -2.3757    0.4879    7.0165 Si  0  0  0  0  0  4  0  0  0  0  0  0
   -3.9461    0.7734    5.4658 Si  0  0  0  0  0  4  0  0  0  0  0  0
   -5.3490   -6.1915    5.8865 Si  0  0  0  0  0  4  0  0  0  0  0  0
   -3.2365   -0.0371    8.9895 Si  0  0  0  0  0  4  0  0  0  0  0  0
   -7.0844   -5.2245    6.8413 Si  0  0  0  0  0  4  0  0  0  0  0  0
   -3.8037   -2.1631    9.1474 Si  0  0  0  0  0  4  0  0  0  0  0  0
   -6.4801   -4.6295    8.9320 Si  0  0  0  0  0  4  0  0  0  0  0  0
   -6.0245   -2.4473    9.0112 Si  0  0  0  0  0  4  0  0  0  0  0  0
   -1.4595    1.4848    3.5516 F   0  0  0  0  0  0  0  0  0  0  0  0
   -3.9159    2.1230    2.5895 F   0  0  0  0  0  0  0  0  0  0  0  0
   -3.3128   -2.2612    5.1938 F   0  0  0  0  0  0  0  0  0  0  0  0
   -2.1587   -3.7107    3.2106 F   0  0  0  0  0  0  0  0  0  0  0  0
   -6.3438   -6.7155    2.8687 F   0  0  0  0  0  0  0  0  0  0  0  0
   -3.6724   -6.3760    3.2077 F   0  0  0  0  0  0  0  0  0  0  0  0
   -3.8954   -5.7579    6.6508 F   0  0  0  0  0  0  0  0  0  0  0  0
   -5.5048   -7.8737    6.1033 F   0  0  0  0  0  0  0  0  0  0  0  0
   -5.0802   -0.4402    5.4570 F   0  0  0  0  0  0  0  0  0  0  0  0
   -4.7572    2.2275    5.8406 F   0  0  0  0  0  0  0  0  0  0  0  0
   -7.7602   -4.9434    9.9937 F   0  0  0  0  0  0  0  0  0  0  0  0
   -5.1482   -5.5443    9.4203 F   0  0  0  0  0  0  0  0  0  0  0  0
   -6.6658   -1.7293    7.6555 F   0  0  0  0  0  0  0  0  0  0  0  0
   -6.7242   -1.7232   10.3692 F   0  0  0  0  0  0  0  0  0  0  0  0
   -2.9968   -3.1446    8.0439 F   0  0  0  0  0  0  0  0  0  0  0  0
   -3.3564   -2.7220   10.6984 F   0  0  0  0  0  0  0  0  0  0  0  0
   -5.6214   -3.5472    1.5121 F   0  0  0  0  0  0  0  0  0  0  0  0
   -6.5611   -2.8521    3.9615 F   0  0  0  0  0  0  0  0  0  0  0  0
   -1.1951   -0.6068    6.5295 F   0  0  0  0  0  0  0  0  0  0  0  0
   -1.5817    1.9897    7.1993 F   0  0  0  0  0  0  0  0  0  0  0  0
   -7.6425   -3.8832    6.0276 F   0  0  0  0  0  0  0  0  0  0  0  0
   -8.3961   -6.3066    6.9895 F   0  0  0  0  0  0  0  0  0  0  0  0
   -2.0539    0.3286   10.1646 F   0  0  0  0  0  0  0  0  0  0  0  0
   -4.5354    0.9980    9.2911 F   0  0  0  0  0  0  0  0  0  0  0  0
  1  2  1  0
  1  3  1  0
  2  7  1  0
  2 14  1  0
  2 15  1  0
  3  4  1  0
  3 16  1  0
  3 17  1  0
  4  5  1  0
  4 30  1  0
  4 31  1  0
  5  8  1  0
  5 18  1  0
  5 19  1  0
  6  7  1  0
  6  9  1  0
  6 32  1  0
  6 33  1  0
  7 22  1  0
  7 23  1  0
  8 10  1  0
  8 20  1  0
  8 21  1  0
  9 11  1  0
  9 36  1  0
  9 37  1  0
 10 12  1  0
 10 34  1  0
 10 35  1  0
 11 13  1  0
 11 28  1  0
 11 29  1  0
 12 13  1  0
 12 24  1  0
 12 25  1  0
 13 26  1  0
 13 27  1  0
M  CHG  1   1   1
M  RAD  1   1   2
M  END
$$$$

     RDKit          3D

 37 37  0  0  0  0  0  0  0  0999 V2000
   -3.1944   -0.8819    2.3386 S   0  0  0  0  0  2  0  0  0  0  0  0
   -3.1551    0.6199    3.8565 Si  0  0  0  0  0  4  0  0  0  0  0  0
   -5.2153   -1.2048    1.6904 Si  0  0  0  0  0  4  0  0  0  0  0  0
   -6.4583   -1.9103    3.3664 Si  0  0  0  0  0  4  0  0  0  0  0  0
   -6.3911   -4.0884    3.6845 Si  0  0  0  0  0  4  0  0  0  0  0  0
   -1.7540   -2.3076    5.4281 Si  0  0  0  0  0  4  0  0  0  0  0  0
   -2.0309   -0.1020    5.6735 Si  0  0  0  0  0  4  0  0  0  0  0  0
   -4.8931   -5.1344    2.4702 Si  0  0  0  0  0  4  0  0  0  0  0  0
   -1.5633   -3.2207    7.4440 Si  0  0  0  0  0  4  0  0  0  0  0  0
   -3.5025   -6.4070    3.6833 Si  0  0  0  0  0  4  0  0  0  0  0  0
   -1.5909   -5.4725    7.3126 Si  0  0  0  0  0  4  0  0  0  0  0  0
   -4.3841   -7.1460    5.5337 Si  0  0  0  0  0  4  0  0  0  0  0  0
   -3.6425   -6.2395    7.3909 Si  0  0  0  0  0  4  0  0  0  0  0  0
   -4.7046    1.0956    4.3218 F   0  0  0  0  0  0  0  0  0  0  0  0
   -2.3811    2.0242    3.2709 F   0  0  0  0  0  0  0  0  0  0  0  0
   -5.8146    0.3173    1.1979 F   0  0  0  0  0  0  0  0  0  0  0  0
   -5.2813   -2.2001    0.3429 F   0  0  0  0  0  0  0  0  0  0  0  0
   -7.9243   -4.7573    3.3434 F   0  0  0  0  0  0  0  0  0  0  0  0
   -6.1164   -4.3782    5.3268 F   0  0  0  0  0  0  0  0  0  0  0  0
   -5.6452   -6.0688    1.2563 F   0  0  0  0  0  0  0  0  0  0  0  0
   -3.9723   -3.9675    1.6301 F   0  0  0  0  0  0  0  0  0  0  0  0
   -0.5581    0.6623    5.8218 F   0  0  0  0  0  0  0  0  0  0  0  0
   -2.9956    0.1223    7.0551 F   0  0  0  0  0  0  0  0  0  0  0  0
   -6.0768   -6.9190    5.4704 F   0  0  0  0  0  0  0  0  0  0  0  0
   -4.1778   -8.8396    5.6488 F   0  0  0  0  0  0  0  0  0  0  0  0
   -4.6712   -4.9662    7.8821 F   0  0  0  0  0  0  0  0  0  0  0  0
   -3.7714   -7.3931    8.6479 F   0  0  0  0  0  0  0  0  0  0  0  0
   -0.7229   -5.9915    8.6929 F   0  0  0  0  0  0  0  0  0  0  0  0
   -0.7063   -6.0106    5.9968 F   0  0  0  0  0  0  0  0  0  0  0  0
   -8.0647   -1.4135    3.0768 F   0  0  0  0  0  0  0  0  0  0  0  0
   -5.9744   -1.0693    4.7707 F   0  0  0  0  0  0  0  0  0  0  0  0
   -0.3863   -2.5803    4.5007 F   0  0  0  0  0  0  0  0  0  0  0  0
   -3.1486   -2.8688    4.6530 F   0  0  0  0  0  0  0  0  0  0  0  0
   -3.0960   -7.7309    2.6763 F   0  0  0  0  0  0  0  0  0  0  0  0
   -2.0659   -5.5552    3.8913 F   0  0  0  0  0  0  0  0  0  0  0  0
   -2.8211   -2.6841    8.4080 F   0  0  0  0  0  0  0  0  0  0  0  0
   -0.1163   -2.6914    8.1279 F   0  0  0  0  0  0  0  0  0  0  0  0
  1  2  1  0
  1  3  1  0
  2  7  1  0
  2 14  1  0
  2 15  1  0
  3  4  1  0
  3 16  1  0
  3 17  1  0
  4  5  1  0
  4 30  1  0
  4 31  1  0
  5  8  1  0
  5 18  1  0
  5 19  1  0
  6  7  1  0
  6  9  1  0
  6 32  1  0
  6 33  1  0
  7 22  1  0
  7 23  1  0
  8 10  1  0
  8 20  1  0
  8 21  1  0
  9 11  1  0
  9 36  1  0
  9 37  1  0
 10 12  1  0
 10 34  1  0
 10 35  1  0
 11 13  1  0
 11 28  1  0
 11 29  1  0
 12 13  1  0
 12 24  1  0
 12 25  1  0
 13 26  1  0
 13 27  1  0
M  CHG  1   1   1
M  RAD  1   1   2
M  END
$$$$
