
     RDKit          3D

 37 37  0  0  0  0  0  0  0  0999 V2000
   -0.5543   -0.1502   -4.1162 S   0  0  0  0  0  2  0  0  0  0  0  0
    0.4312    1.3116   -5.3122 Si  0  0  0  0  0  4  0  0  0  0  0  0
   -2.4707   -0.6772   -4.9063 Si  0  0  0  0  0  4  0  0  0  0  0  0
   -2.2213   -1.7647   -6.8376 Si  0  0  0  0  0  4  0  0  0  0  0  0
   -4.1874   -2.4850   -7.5897 Si  0  0  0  0  0  4  0  0  0  0  0  0
   -0.1995    4.2567   -7.4396 Si  0  0  0  0  0  4  0  0  0  0  0  0
   -1.0560    2.7804   -6.0258 Si  0  0  0  0  0  4  0  0  0  0  0  0
   -5.2462   -0.8195   -8.6815 Si  0  0  0  0  0  4  0  0  0  0  0  0
   -1.9176    5.5034   -8.2058 Si  0  0  0  0  0  4  0  0  0  0  0  0
   -4.4074   -0.5585  -10.6987 Si  0  0  0  0  0  4  0  0  0  0  0  0
   -3.5496    4.1502   -8.8826 Si  0  0  0  0  0  4  0  0  0  0  0  0
   -4.3589    1.5507  -11.3715 Si  0  0  0  0  0  4  0  0  0  0  0  0
   -2.7583    2.7324  -10.4112 Si  0  0  0  0  0  4  0  0  0  0  0  0
    1.6281    2.0396   -4.3615 F   0  0  0  0  0  0  0  0  0  0  0  0
    1.1944    0.5425   -6.6121 F   0  0  0  0  0  0  0  0  0  0  0  0
   -3.1787   -1.7720   -3.8084 F   0  0  0  0  0  0  0  0  0  0  0  0
   -3.5001    0.6263   -5.0331 F   0  0  0  0  0  0  0  0  0  0  0  0
   -5.1402   -3.0868   -6.3575 F   0  0  0  0  0  0  0  0  0  0  0  0
   -3.9149   -3.7446   -8.6882 F   0  0  0  0  0  0  0  0  0  0  0  0
   -5.1593    0.5371   -7.7251 F   0  0  0  0  0  0  0  0  0  0  0  0
   -6.8861   -1.2793   -8.7703 F   0  0  0  0  0  0  0  0  0  0  0  0
   -2.2669    1.9173   -6.8537 F   0  0  0  0  0  0  0  0  0  0  0  0
   -1.6931    3.6045   -4.7115 F   0  0  0  0  0  0  0  0  0  0  0  0
   -4.0673    1.5242  -13.0552 F   0  0  0  0  0  0  0  0  0  0  0  0
   -5.8759    2.2895  -11.1818 F   0  0  0  0  0  0  0  0  0  0  0  0
   -1.5729    1.7205   -9.7655 F   0  0  0  0  0  0  0  0  0  0  0  0
   -1.9713    3.6976  -11.5818 F   0  0  0  0  0  0  0  0  0  0  0  0
   -4.2239    3.3836   -7.5763 F   0  0  0  0  0  0  0  0  0  0  0  0
   -4.7441    5.0849   -9.6265 F   0  0  0  0  0  0  0  0  0  0  0  0
   -1.4991   -0.7854   -7.9989 F   0  0  0  0  0  0  0  0  0  0  0  0
   -1.2371   -3.1153   -6.5270 F   0  0  0  0  0  0  0  0  0  0  0  0
    0.5680    3.4899   -8.7208 F   0  0  0  0  0  0  0  0  0  0  0  0
    0.9120    5.2389   -6.6272 F   0  0  0  0  0  0  0  0  0  0  0  0
   -5.3908   -1.4243  -11.7932 F   0  0  0  0  0  0  0  0  0  0  0  0
   -2.8644   -1.2032  -10.8267 F   0  0  0  0  0  0  0  0  0  0  0  0
   -2.4979    6.3752   -6.8639 F   0  0  0  0  0  0  0  0  0  0  0  0
   -1.4205    6.5439   -9.4081 F   0  0  0  0  0  0  0  0  0  0  0  0
  1  2  1  0
  1  3  1  0
  2  7  1  0
  2 14  1  0
  2 15  1  0
  3  4  1  0
  3 16  1  0
  3 17  1  0
  4  5  1  0
  4 30  1  0
  4 31  1  0
  5  8  1  0
  5 18  1  0
  5 19  1  0
  6  7  1  0
  6  9  1  0
  6 32  1  0
  6 33  1  0
  7 22  1  0
  7 23  1  0
  8 10  1  0
  8 20  1  0
  8 21  1  0
  9 11  1  0
  9 36  1  0
  9 37  1  0
 10 12  1  0
 10 34  1  0
 10 35  1  0
 11 13  1  0
 11 28  1  0
 11 29  1  0
 12 13  1  0
 12 24  1  0
 12 25  1  0
 13 26  1  0
 13 27  1  0
M  CHG  1   1   1
M  RAD  1   1   2
M  END
$$$$
