
     RDKit          3D

 37 37  0  0  0  0  0  0  0  0999 V2000
   -0.0013    0.0009   -3.1932 S   0  0  0  0  0  2  0  0  0  0  0  0
    0.1088   -1.9624   -3.9011 Si  0  0  0  0  0  4  0  0  0  0  0  0
   -0.6554    1.4856   -4.5335 Si  0  0  0  0  0  4  0  0  0  0  0  0
    0.9398    2.8891   -5.1581 Si  0  0  0  0  0  4  0  0  0  0  0  0
    2.2987    2.1123   -6.6854 Si  0  0  0  0  0  4  0  0  0  0  0  0
   -0.6488   -3.8009   -7.0074 Si  0  0  0  0  0  4  0  0  0  0  0  0
    0.5075   -2.1739   -6.0580 Si  0  0  0  0  0  4  0  0  0  0  0  0
    1.4262    2.0901   -8.7299 Si  0  0  0  0  0  4  0  0  0  0  0  0
    0.2960   -4.4668   -8.9322 Si  0  0  0  0  0  4  0  0  0  0  0  0
    2.7854    0.9423  -10.0672 Si  0  0  0  0  0  4  0  0  0  0  0  0
    2.4889   -4.4478   -8.8421 Si  0  0  0  0  0  4  0  0  0  0  0  0
    2.0177   -1.1335  -10.4237 Si  0  0  0  0  0  4  0  0  0  0  0  0
    3.4279   -2.6611   -9.7079 Si  0  0  0  0  0  4  0  0  0  0  0  0
   -1.3342   -2.7769   -3.5466 F   0  0  0  0  0  0  0  0  0  0  0  0
    1.3307   -2.7784   -3.0500 F   0  0  0  0  0  0  0  0  0  0  0  0
   -1.5645    0.9164   -5.8089 F   0  0  0  0  0  0  0  0  0  0  0  0
   -1.7476    2.4565   -3.6333 F   0  0  0  0  0  0  0  0  0  0  0  0
    2.8553    0.5829   -6.2300 F   0  0  0  0  0  0  0  0  0  0  0  0
    3.6646    3.1161   -6.7320 F   0  0  0  0  0  0  0  0  0  0  0  0
   -0.1405    1.5354   -8.7652 F   0  0  0  0  0  0  0  0  0  0  0  0
    1.4041    3.7047   -9.2848 F   0  0  0  0  0  0  0  0  0  0  0  0
    2.1458   -2.4485   -6.3320 F   0  0  0  0  0  0  0  0  0  0  0  0
    0.0986   -0.7340   -6.8178 F   0  0  0  0  0  0  0  0  0  0  0  0
    0.4979   -1.2392   -9.7477 F   0  0  0  0  0  0  0  0  0  0  0  0
    1.8129   -1.3132  -12.1100 F   0  0  0  0  0  0  0  0  0  0  0  0
    4.4249   -1.9498   -8.5179 F   0  0  0  0  0  0  0  0  0  0  0  0
    4.4806   -3.0579  -10.9931 F   0  0  0  0  0  0  0  0  0  0  0  0
    2.9747   -4.6897   -7.2226 F   0  0  0  0  0  0  0  0  0  0  0  0
    3.0821   -5.8158   -9.6792 F   0  0  0  0  0  0  0  0  0  0  0  0
    1.8405    3.2996   -3.7779 F   0  0  0  0  0  0  0  0  0  0  0  0
    0.2604    4.3492   -5.7189 F   0  0  0  0  0  0  0  0  0  0  0  0
   -0.8591   -5.1295   -6.0006 F   0  0  0  0  0  0  0  0  0  0  0  0
   -2.1838   -3.1788   -7.4168 F   0  0  0  0  0  0  0  0  0  0  0  0
    4.3297    0.7861   -9.3626 F   0  0  0  0  0  0  0  0  0  0  0  0
    3.0056    1.7712  -11.5174 F   0  0  0  0  0  0  0  0  0  0  0  0
   -0.2272   -6.0781   -9.1626 F   0  0  0  0  0  0  0  0  0  0  0  0
   -0.3271   -3.6007  -10.2423 F   0  0  0  0  0  0  0  0  0  0  0  0
  1  2  1  0
  1  3  1  0
  2  7  1  0
  2 14  1  0
  2 15  1  0
  3  4  1  0
  3 16  1  0
  3 17  1  0
  4  5  1  0
  4 30  1  0
  4 31  1  0
  5  8  1  0
  5 18  1  0
  5 19  1  0
  6  7  1  0
  6  9  1  0
  6 32  1  0
  6 33  1  0
  7 22  1  0
  7 23  1  0
  8 10  1  0
  8 20  1  0
  8 21  1  0
  9 11  1  0
  9 36  1  0
  9 37  1  0
 10 12  1  0
 10 34  1  0
 10 35  1  0
 11 13  1  0
 11 28  1  0
 11 29  1  0
 12 13  1  0
 12 24  1  0
 12 25  1  0
 13 26  1  0
 13 27  1  0
M  CHG  1   1   1
M  RAD  1   1   2
M  END
$$$$

     RDKit          3D

 37 37  0  0  0  0  0  0  0  0999 V2000
   -0.0013    0.0009   -3.1932 S   0  0  0  0  0  2  0  0  0  0  0  0
   -0.2497    1.9519   -3.9000 Si  0  0  0  0  0  4  0  0  0  0  0  0
    0.7566   -1.4330   -4.5341 Si  0  0  0  0  0  4  0  0  0  0  0  0
   -0.7351   -2.9455   -5.1601 Si  0  0  0  0  0  4  0  0  0  0  0  0
   -2.1451   -2.2658   -6.6874 Si  0  0  0  0  0  4  0  0  0  0  0  0
    0.3769    3.8413   -7.0049 Si  0  0  0  0  0  4  0  0  0  0  0  0
   -0.6617    2.1360   -6.0570 Si  0  0  0  0  0  4  0  0  0  0  0  0
   -1.2757   -2.1807   -8.7316 Si  0  0  0  0  0  4  0  0  0  0  0  0
   -0.6119    4.4398   -8.9297 Si  0  0  0  0  0  4  0  0  0  0  0  0
   -2.7122   -1.1311  -10.0687 Si  0  0  0  0  0  4  0  0  0  0  0  0
   -2.7981    4.2657   -8.8404 Si  0  0  0  0  0  4  0  0  0  0  0  0
   -2.0931    0.9940  -10.4238 Si  0  0  0  0  0  4  0  0  0  0  0  0
   -3.6080    2.4176   -9.7076 Si  0  0  0  0  0  4  0  0  0  0  0  0
    1.1320    2.8662   -3.5446 F   0  0  0  0  0  0  0  0  0  0  0  0
   -1.5265    2.6790   -3.0489 F   0  0  0  0  0  0  0  0  0  0  0  0
    1.6236   -0.8002   -5.8089 F   0  0  0  0  0  0  0  0  0  0  0  0
    1.9145   -2.3248   -3.6341 F   0  0  0  0  0  0  0  0  0  0  0  0
   -2.8086   -0.7799   -6.2314 F   0  0  0  0  0  0  0  0  0  0  0  0
   -3.4365   -3.3637   -6.7351 F   0  0  0  0  0  0  0  0  0  0  0  0
    0.2479   -1.5166   -8.7660 F   0  0  0  0  0  0  0  0  0  0  0  0
   -1.1393   -3.7894   -9.2874 F   0  0  0  0  0  0  0  0  0  0  0  0
   -2.3152    2.2942   -6.3314 F   0  0  0  0  0  0  0  0  0  0  0  0
   -0.1517    0.7290   -6.8174 F   0  0  0  0  0  0  0  0  0  0  0  0
   -0.5848    1.2064   -9.7471 F   0  0  0  0  0  0  0  0  0  0  0  0
   -1.9010    1.1887  -12.1099 F   0  0  0  0  0  0  0  0  0  0  0  0
   -4.5526    1.6368   -8.5184 F   0  0  0  0  0  0  0  0  0  0  0  0
   -4.6857    2.7397  -10.9929 F   0  0  0  0  0  0  0  0  0  0  0  0
   -3.3002    4.4716   -7.2210 F   0  0  0  0  0  0  0  0  0  0  0  0
   -3.4862    5.5888   -9.6770 F   0  0  0  0  0  0  0  0  0  0  0  0
   -1.6049   -3.4195   -3.7805 F   0  0  0  0  0  0  0  0  0  0  0  0
    0.0461   -4.3535   -5.7215 F   0  0  0  0  0  0  0  0  0  0  0  0
    0.4925    5.1807   -5.9973 F   0  0  0  0  0  0  0  0  0  0  0  0
    1.9523    3.3295   -7.4142 F   0  0  0  0  0  0  0  0  0  0  0  0
   -4.2639   -1.0850   -9.3646 F   0  0  0  0  0  0  0  0  0  0  0  0
   -2.8727   -1.9727  -11.5195 F   0  0  0  0  0  0  0  0  0  0  0  0
   -0.2039    6.0842   -9.1590 F   0  0  0  0  0  0  0  0  0  0  0  0
    0.0712    3.6208  -10.2401 F   0  0  0  0  0  0  0  0  0  0  0  0
  1  2  1  0
  1  3  1  0
  2  7  1  0
  2 14  1  0
  2 15  1  0
  3  4  1  0
  3 16  1  0
  3 17  1  0
  4  5  1  0
  4 30  1  0
  4 31  1  0
  5  8  1  0
  5 18  1  0
  5 19  1  0
  6  7  1  0
  6  9  1  0
  6 32  1  0
  6 33  1  0
  7 22  1  0
  7 23  1  0
  8 10  1  0
  8 20  1  0
  8 21  1  0
  9 11  1  0
  9 36  1  0
  9 37  1  0
 10 12  1  0
 10 34  1  0
 10 35  1  0
 11 13  1  0
 11 28  1  0
 11 29  1  0
 12 13  1  0
 12 24  1  0
 12 25  1  0
 13 26  1  0
 13 27  1  0
M  CHG  1   1   1
M  RAD  1   1   2
M  END
$$$$
