
     RDKit          3D

 37 37  0  0  0  0  0  0  0  0999 V2000
   -1.2799   -0.4521   -2.4429 S   0  0  0  0  0  2  0  0  0  0  0  0
   -3.2937    0.2379   -2.8024 Si  0  0  0  0  0  4  0  0  0  0  0  0
   -0.2041   -0.5698   -4.3279 Si  0  0  0  0  0  4  0  0  0  0  0  0
   -0.3469   -2.6159   -5.0732 Si  0  0  0  0  0  4  0  0  0  0  0  0
   -0.0455   -2.9149   -7.2116 Si  0  0  0  0  0  4  0  0  0  0  0  0
   -5.7623    0.5936   -5.5271 Si  0  0  0  0  0  4  0  0  0  0  0  0
   -4.1351   -0.6548   -4.6451 Si  0  0  0  0  0  4  0  0  0  0  0  0
   -0.6186   -1.2909   -8.5422 Si  0  0  0  0  0  4  0  0  0  0  0  0
   -5.2856    1.1902   -7.6092 Si  0  0  0  0  0  4  0  0  0  0  0  0
   -2.4367   -1.7708   -9.7861 Si  0  0  0  0  0  4  0  0  0  0  0  0
   -6.1510   -0.2028   -9.1093 Si  0  0  0  0  0  4  0  0  0  0  0  0
   -3.8463   -3.0820   -8.7460 Si  0  0  0  0  0  4  0  0  0  0  0  0
   -5.8921   -2.3244   -8.5728 Si  0  0  0  0  0  4  0  0  0  0  0  0
   -4.2562   -0.2430   -1.4897 F   0  0  0  0  0  0  0  0  0  0  0  0
   -3.3030    1.9195   -2.8506 F   0  0  0  0  0  0  0  0  0  0  0  0
    1.4121   -0.1735   -3.9545 F   0  0  0  0  0  0  0  0  0  0  0  0
   -0.8252    0.6144   -5.2946 F   0  0  0  0  0  0  0  0  0  0  0  0
   -0.9197   -4.3137   -7.6771 F   0  0  0  0  0  0  0  0  0  0  0  0
    1.5903   -3.3314   -7.4869 F   0  0  0  0  0  0  0  0  0  0  0  0
    0.6320   -0.9852   -9.6711 F   0  0  0  0  0  0  0  0  0  0  0  0
   -0.8938    0.1834   -7.7894 F   0  0  0  0  0  0  0  0  0  0  0  0
   -2.9087   -0.7688   -5.7880 F   0  0  0  0  0  0  0  0  0  0  0  0
   -4.7899   -2.1585   -4.2625 F   0  0  0  0  0  0  0  0  0  0  0  0
   -3.8890   -4.6202   -9.4942 F   0  0  0  0  0  0  0  0  0  0  0  0
   -3.2592   -3.4034   -7.1745 F   0  0  0  0  0  0  0  0  0  0  0  0
   -6.4978   -2.5355   -6.9893 F   0  0  0  0  0  0  0  0  0  0  0  0
   -6.9408   -3.2370   -9.5675 F   0  0  0  0  0  0  0  0  0  0  0  0
   -5.5681    0.1621  -10.6278 F   0  0  0  0  0  0  0  0  0  0  0  0
   -7.8327    0.1098   -9.1498 F   0  0  0  0  0  0  0  0  0  0  0  0
    0.8208   -3.5556   -4.2376 F   0  0  0  0  0  0  0  0  0  0  0  0
   -1.8367   -3.2750   -4.5456 F   0  0  0  0  0  0  0  0  0  0  0  0
   -7.2639   -0.1857   -5.4186 F   0  0  0  0  0  0  0  0  0  0  0  0
   -5.8771    2.0043   -4.5890 F   0  0  0  0  0  0  0  0  0  0  0  0
   -1.8945   -2.5447  -11.2096 F   0  0  0  0  0  0  0  0  0  0  0  0
   -3.0921   -0.3033  -10.2732 F   0  0  0  0  0  0  0  0  0  0  0  0
   -3.6414    1.3822   -7.7675 F   0  0  0  0  0  0  0  0  0  0  0  0
   -5.9993    2.7192   -7.8747 F   0  0  0  0  0  0  0  0  0  0  0  0
  1  2  1  0
  1  3  1  0
  2  7  1  0
  2 14  1  0
  2 15  1  0
  3  4  1  0
  3 16  1  0
  3 17  1  0
  4  5  1  0
  4 30  1  0
  4 31  1  0
  5  8  1  0
  5 18  1  0
  5 19  1  0
  6  7  1  0
  6  9  1  0
  6 32  1  0
  6 33  1  0
  7 22  1  0
  7 23  1  0
  8 10  1  0
  8 20  1  0
  8 21  1  0
  9 11  1  0
  9 36  1  0
  9 37  1  0
 10 12  1  0
 10 34  1  0
 10 35  1  0
 11 13  1  0
 11 28  1  0
 11 29  1  0
 12 13  1  0
 12 24  1  0
 12 25  1  0
 13 26  1  0
 13 27  1  0
M  CHG  1   1   1
M  RAD  1   1   2
M  END
$$$$

     RDKit          3D

 37 37  0  0  0  0  0  0  0  0999 V2000
   -1.2799   -0.4521   -2.4429 S   0  0  0  0  0  2  0  0  0  0  0  0
   -3.3755   -0.9427   -2.6109 Si  0  0  0  0  0  4  0  0  0  0  0  0
   -0.6524    0.6684   -4.1965 Si  0  0  0  0  0  4  0  0  0  0  0  0
    0.1996   -0.7319   -5.6373 Si  0  0  0  0  0  4  0  0  0  0  0  0
    0.2411   -0.1036   -7.7244 Si  0  0  0  0  0  4  0  0  0  0  0  0
   -6.0744   -1.1842   -5.1214 Si  0  0  0  0  0  4  0  0  0  0  0  0
   -3.9084   -1.5043   -4.6849 Si  0  0  0  0  0  4  0  0  0  0  0  0
   -1.3329    1.2394   -8.3993 Si  0  0  0  0  0  4  0  0  0  0  0  0
   -6.3591    0.2072   -6.8248 Si  0  0  0  0  0  4  0  0  0  0  0  0
   -2.7911    0.2511   -9.8064 Si  0  0  0  0  0  4  0  0  0  0  0  0
   -6.5844   -0.8592   -8.7617 Si  0  0  0  0  0  4  0  0  0  0  0  0
   -3.0727   -1.8747   -9.3706 Si  0  0  0  0  0  4  0  0  0  0  0  0
   -5.1394   -2.5028   -9.0195 Si  0  0  0  0  0  4  0  0  0  0  0  0
   -3.6865   -2.2719   -1.6024 F   0  0  0  0  0  0  0  0  0  0  0  0
   -4.2941    0.3491   -2.0475 F   0  0  0  0  0  0  0  0  0  0  0  0
    0.5342    1.7590   -3.6387 F   0  0  0  0  0  0  0  0  0  0  0  0
   -1.9674    1.5323   -4.6937 F   0  0  0  0  0  0  0  0  0  0  0  0
    0.1897   -1.5115   -8.7004 F   0  0  0  0  0  0  0  0  0  0  0  0
    1.7685    0.5870   -8.0641 F   0  0  0  0  0  0  0  0  0  0  0  0
   -0.6582    2.5379   -9.2883 F   0  0  0  0  0  0  0  0  0  0  0  0
   -2.2219    1.9665   -7.1758 F   0  0  0  0  0  0  0  0  0  0  0  0
   -3.0309   -0.5346   -5.7399 F   0  0  0  0  0  0  0  0  0  0  0  0
   -3.5764   -3.1412   -4.9000 F   0  0  0  0  0  0  0  0  0  0  0  0
   -2.4112   -2.8307  -10.6260 F   0  0  0  0  0  0  0  0  0  0  0  0
   -2.1449   -2.2943   -7.9994 F   0  0  0  0  0  0  0  0  0  0  0  0
   -5.2540   -3.5128   -7.6462 F   0  0  0  0  0  0  0  0  0  0  0  0
   -5.6870   -3.4684  -10.3195 F   0  0  0  0  0  0  0  0  0  0  0  0
   -6.5600    0.2343  -10.0197 F   0  0  0  0  0  0  0  0  0  0  0  0
   -8.1482   -1.5533   -8.7557 F   0  0  0  0  0  0  0  0  0  0  0  0
    1.8122   -1.0600   -5.1511 F   0  0  0  0  0  0  0  0  0  0  0  0
   -0.5864   -2.2411   -5.4460 F   0  0  0  0  0  0  0  0  0  0  0  0
   -6.8777   -2.6571   -5.3645 F   0  0  0  0  0  0  0  0  0  0  0  0
   -6.7650   -0.4749   -3.7419 F   0  0  0  0  0  0  0  0  0  0  0  0
   -2.1728    0.4233  -11.3899 F   0  0  0  0  0  0  0  0  0  0  0  0
   -4.2040    1.1576   -9.7558 F   0  0  0  0  0  0  0  0  0  0  0  0
   -5.1312    1.3286   -6.8348 F   0  0  0  0  0  0  0  0  0  0  0  0
   -7.8149    1.0566   -6.5480 F   0  0  0  0  0  0  0  0  0  0  0  0
  1  2  1  0
  1  3  1  0
  2  7  1  0
  2 14  1  0
  2 15  1  0
  3  4  1  0
  3 16  1  0
  3 17  1  0
  4  5  1  0
  4 30  1  0
  4 31  1  0
  5  8  1  0
  5 18  1  0
  5 19  1  0
  6  7  1  0
  6  9  1  0
  6 32  1  0
  6 33  1  0
  7 22  1  0
  7 23  1  0
  8 10  1  0
  8 20  1  0
  8 21  1  0
  9 11  1  0
  9 36  1  0
  9 37  1  0
 10 12  1  0
 10 34  1  0
 10 35  1  0
 11 13  1  0
 11 28  1  0
 11 29  1  0
 12 13  1  0
 12 24  1  0
 12 25  1  0
 13 26  1  0
 13 27  1  0
M  CHG  1   1   1
M  RAD  1   1   2
M  END
$$$$
