
     RDKit          3D

 37 37  0  0  0  0  0  0  0  0999 V2000
   -0.0995   -0.1809    3.1865 S   0  0  0  0  0  2  0  0  0  0  0  0
    0.0155   -2.0467    4.2024 Si  0  0  0  0  0  4  0  0  0  0  0  0
   -1.3197    1.1827    4.3481 Si  0  0  0  0  0  4  0  0  0  0  0  0
    0.0694    2.5122    5.4327 Si  0  0  0  0  0  4  0  0  0  0  0  0
   -0.9104    3.7894    6.9355 Si  0  0  0  0  0  4  0  0  0  0  0  0
    2.1510   -3.7902    6.6179 Si  0  0  0  0  0  4  0  0  0  0  0  0
    2.0966   -2.6301    4.6920 Si  0  0  0  0  0  4  0  0  0  0  0  0
   -2.3519    2.7228    8.2240 Si  0  0  0  0  0  4  0  0  0  0  0  0
    1.6150   -2.4854    8.3465 Si  0  0  0  0  0  4  0  0  0  0  0  0
   -1.5063    2.2904   10.2323 Si  0  0  0  0  0  4  0  0  0  0  0  0
   -0.3178   -3.0983    9.2657 Si  0  0  0  0  0  4  0  0  0  0  0  0
   -0.5945    0.3117   10.4417 Si  0  0  0  0  0  4  0  0  0  0  0  0
   -1.6913   -1.3472    9.5216 Si  0  0  0  0  0  4  0  0  0  0  0  0
   -0.6234   -3.2396    3.1688 F   0  0  0  0  0  0  0  0  0  0  0  0
   -0.8888   -2.0030    5.6488 F   0  0  0  0  0  0  0  0  0  0  0  0
   -2.2827    0.2635    5.3451 F   0  0  0  0  0  0  0  0  0  0  0  0
   -2.2784    2.0362    3.2409 F   0  0  0  0  0  0  0  0  0  0  0  0
    0.2965    4.4533    7.9391 F   0  0  0  0  0  0  0  0  0  0  0  0
   -1.6212    5.1072    6.1292 F   0  0  0  0  0  0  0  0  0  0  0  0
   -3.6501    3.8080    8.4945 F   0  0  0  0  0  0  0  0  0  0  0  0
   -3.0343    1.3872    7.5070 F   0  0  0  0  0  0  0  0  0  0  0  0
    2.7846   -3.6023    3.5093 F   0  0  0  0  0  0  0  0  0  0  0  0
    3.0080   -1.2241    4.9508 F   0  0  0  0  0  0  0  0  0  0  0  0
    1.0197    0.3895    9.9148 F   0  0  0  0  0  0  0  0  0  0  0  0
   -0.4839   -0.0260   12.1168 F   0  0  0  0  0  0  0  0  0  0  0  0
   -2.3795   -1.0150    8.0573 F   0  0  0  0  0  0  0  0  0  0  0  0
   -2.9262   -1.8512   10.5822 F   0  0  0  0  0  0  0  0  0  0  0  0
   -1.0771   -4.1636    8.1719 F   0  0  0  0  0  0  0  0  0  0  0  0
   -0.0973   -3.9085   10.7047 F   0  0  0  0  0  0  0  0  0  0  0  0
    1.3126    1.5863    6.1202 F   0  0  0  0  0  0  0  0  0  0  0  0
    0.8248    3.5233    4.2889 F   0  0  0  0  0  0  0  0  0  0  0  0
    1.1472   -5.1329    6.5267 F   0  0  0  0  0  0  0  0  0  0  0  0
    3.7736   -4.2705    6.8372 F   0  0  0  0  0  0  0  0  0  0  0  0
   -2.6919    2.4810   11.4354 F   0  0  0  0  0  0  0  0  0  0  0  0
   -0.3329    3.4663   10.5407 F   0  0  0  0  0  0  0  0  0  0  0  0
    2.8066   -2.5494    9.5565 F   0  0  0  0  0  0  0  0  0  0  0  0
    1.4288   -0.9196    7.7652 F   0  0  0  0  0  0  0  0  0  0  0  0
  1  2  1  0
  1  3  1  0
  2  7  1  0
  2 14  1  0
  2 15  1  0
  3  4  1  0
  3 16  1  0
  3 17  1  0
  4  5  1  0
  4 30  1  0
  4 31  1  0
  5  8  1  0
  5 18  1  0
  5 19  1  0
  6  7  1  0
  6  9  1  0
  6 32  1  0
  6 33  1  0
  7 22  1  0
  7 23  1  0
  8 10  1  0
  8 20  1  0
  8 21  1  0
  9 11  1  0
  9 36  1  0
  9 37  1  0
 10 12  1  0
 10 34  1  0
 10 35  1  0
 11 13  1  0
 11 28  1  0
 11 29  1  0
 12 13  1  0
 12 24  1  0
 12 25  1  0
 13 26  1  0
 13 27  1  0
M  CHG  1   1   1
M  RAD  1   1   2
M  END
$$$$

     RDKit          3D

 37 37  0  0  0  0  0  0  0  0999 V2000
   -0.0995   -0.1809    3.1865 S   0  0  0  0  0  2  0  0  0  0  0  0
   -0.9749    1.5884    3.9625 Si  0  0  0  0  0  4  0  0  0  0  0  0
    0.0838   -1.7321    4.6205 Si  0  0  0  0  0  4  0  0  0  0  0  0
   -1.6809   -3.0846    4.6619 Si  0  0  0  0  0  4  0  0  0  0  0  0
   -2.2878   -3.5888    6.7466 Si  0  0  0  0  0  4  0  0  0  0  0  0
    2.3539    1.8247    5.4599 Si  0  0  0  0  0  4  0  0  0  0  0  0
    0.2995    2.5521    5.5288 Si  0  0  0  0  0  4  0  0  0  0  0  0
   -2.3614   -1.8180    8.0605 Si  0  0  0  0  0  4  0  0  0  0  0  0
    3.3283    1.4203    7.3713 Si  0  0  0  0  0  4  0  0  0  0  0  0
   -0.9780   -2.0214    9.8202 Si  0  0  0  0  0  4  0  0  0  0  0  0
    2.0765    0.6091    8.9657 Si  0  0  0  0  0  4  0  0  0  0  0  0
    0.9627   -2.9045    9.2419 Si  0  0  0  0  0  4  0  0  0  0  0  0
    2.6602   -1.4814    9.5272 Si  0  0  0  0  0  4  0  0  0  0  0  0
   -1.2187    2.6516    2.6478 F   0  0  0  0  0  0  0  0  0  0  0  0
   -2.5412    1.2947    4.5747 F   0  0  0  0  0  0  0  0  0  0  0  0
    0.3684   -1.0427    6.1263 F   0  0  0  0  0  0  0  0  0  0  0  0
    1.4404   -2.6644    4.2279 F   0  0  0  0  0  0  0  0  0  0  0  0
   -1.2737   -4.7660    7.4006 F   0  0  0  0  0  0  0  0  0  0  0  0
   -3.8356   -4.3015    6.6364 F   0  0  0  0  0  0  0  0  0  0  0  0
   -3.9328   -1.6628    8.7129 F   0  0  0  0  0  0  0  0  0  0  0  0
   -2.0363   -0.3888    7.2496 F   0  0  0  0  0  0  0  0  0  0  0  0
    0.2559    4.2333    5.2176 F   0  0  0  0  0  0  0  0  0  0  0  0
   -0.4616    2.3510    7.0140 F   0  0  0  0  0  0  0  0  0  0  0  0
    0.9462   -3.5420    7.6766 F   0  0  0  0  0  0  0  0  0  0  0  0
    1.2584   -4.2288   10.2793 F   0  0  0  0  0  0  0  0  0  0  0  0
    3.9764   -1.9762    8.5957 F   0  0  0  0  0  0  0  0  0  0  0  0
    3.1353   -1.5807   11.1430 F   0  0  0  0  0  0  0  0  0  0  0  0
    0.4347    0.5994    8.6311 F   0  0  0  0  0  0  0  0  0  0  0  0
    2.2531    1.5612   10.3749 F   0  0  0  0  0  0  0  0  0  0  0  0
   -1.3741   -4.5375    3.8537 F   0  0  0  0  0  0  0  0  0  0  0  0
   -2.9424   -2.3184    3.8456 F   0  0  0  0  0  0  0  0  0  0  0  0
    3.3041    2.9631    4.6042 F   0  0  0  0  0  0  0  0  0  0  0  0
    2.4177    0.4150    4.4963 F   0  0  0  0  0  0  0  0  0  0  0  0
   -0.8022   -0.5129   10.5614 F   0  0  0  0  0  0  0  0  0  0  0  0
   -1.7964   -3.0059   10.9501 F   0  0  0  0  0  0  0  0  0  0  0  0
    4.1139    2.8454    7.8966 F   0  0  0  0  0  0  0  0  0  0  0  0
    4.6081    0.3164    7.0940 F   0  0  0  0  0  0  0  0  0  0  0  0
  1  2  1  0
  1  3  1  0
  2  7  1  0
  2 14  1  0
  2 15  1  0
  3  4  1  0
  3 16  1  0
  3 17  1  0
  4  5  1  0
  4 30  1  0
  4 31  1  0
  5  8  1  0
  5 18  1  0
  5 19  1  0
  6  7  1  0
  6  9  1  0
  6 32  1  0
  6 33  1  0
  7 22  1  0
  7 23  1  0
  8 10  1  0
  8 20  1  0
  8 21  1  0
  9 11  1  0
  9 36  1  0
  9 37  1  0
 10 12  1  0
 10 34  1  0
 10 35  1  0
 11 13  1  0
 11 28  1  0
 11 29  1  0
 12 13  1  0
 12 24  1  0
 12 25  1  0
 13 26  1  0
 13 27  1  0
M  CHG  1   1   1
M  RAD  1   1   2
M  END
$$$$
