
     RDKit          3D

 37 37  0  0  0  0  0  0  0  0999 V2000
   -1.8615    0.0560   -2.5903 S   0  0  0  0  0  2  0  0  0  0  0  0
   -1.4947    0.1819   -4.6517 Si  0  0  0  0  0  4  0  0  0  0  0  0
   -3.8619   -0.3743   -2.0505 Si  0  0  0  0  0  4  0  0  0  0  0  0
   -5.3642    0.6109   -3.3357 Si  0  0  0  0  0  4  0  0  0  0  0  0
   -6.1173   -0.8476   -4.8281 Si  0  0  0  0  0  4  0  0  0  0  0  0
   -0.2979    2.4727   -7.2838 Si  0  0  0  0  0  4  0  0  0  0  0  0
   -0.8373    2.2846   -5.1397 Si  0  0  0  0  0  4  0  0  0  0  0  0
   -6.5178    0.0254   -6.7978 Si  0  0  0  0  0  4  0  0  0  0  0  0
   -1.4285    4.0948   -8.2973 Si  0  0  0  0  0  4  0  0  0  0  0  0
   -5.7184    2.0553   -7.0830 Si  0  0  0  0  0  4  0  0  0  0  0  0
   -2.1791    3.3456  -10.2612 Si  0  0  0  0  0  4  0  0  0  0  0  0
   -5.6248    2.4665   -9.3013 Si  0  0  0  0  0  4  0  0  0  0  0  0
   -3.6495    1.7126  -10.0220 Si  0  0  0  0  0  4  0  0  0  0  0  0
   -2.7566   -0.2958   -5.6227 F   0  0  0  0  0  0  0  0  0  0  0  0
   -0.1605   -0.8160   -5.0314 F   0  0  0  0  0  0  0  0  0  0  0  0
   -4.1306   -2.0589   -2.0725 F   0  0  0  0  0  0  0  0  0  0  0  0
   -4.0976    0.1195   -0.4528 F   0  0  0  0  0  0  0  0  0  0  0  0
   -5.0200   -2.1499   -4.9602 F   0  0  0  0  0  0  0  0  0  0  0  0
   -7.5591   -1.5617   -4.2505 F   0  0  0  0  0  0  0  0  0  0  0  0
   -5.8598   -0.9835   -8.0053 F   0  0  0  0  0  0  0  0  0  0  0  0
   -8.1946    0.0760   -7.1146 F   0  0  0  0  0  0  0  0  0  0  0  0
   -2.0604    3.3853   -4.7134 F   0  0  0  0  0  0  0  0  0  0  0  0
    0.4798    2.6074   -4.1356 F   0  0  0  0  0  0  0  0  0  0  0  0
   -6.8729    1.6215  -10.0522 F   0  0  0  0  0  0  0  0  0  0  0  0
   -5.8075    4.1009   -9.5859 F   0  0  0  0  0  0  0  0  0  0  0  0
   -3.0270    0.5493   -8.9633 F   0  0  0  0  0  0  0  0  0  0  0  0
   -3.8841    0.9659  -11.5130 F   0  0  0  0  0  0  0  0  0  0  0  0
   -0.8494    2.7442  -11.1171 F   0  0  0  0  0  0  0  0  0  0  0  0
   -2.8857    4.6033  -11.1422 F   0  0  0  0  0  0  0  0  0  0  0  0
   -6.6841    1.0804   -2.3688 F   0  0  0  0  0  0  0  0  0  0  0  0
   -4.7695    2.0117   -4.0429 F   0  0  0  0  0  0  0  0  0  0  0  0
    1.3574    2.8783   -7.3691 F   0  0  0  0  0  0  0  0  0  0  0  0
   -0.4730    0.9914   -8.1005 F   0  0  0  0  0  0  0  0  0  0  0  0
   -4.1640    2.1995   -6.5127 F   0  0  0  0  0  0  0  0  0  0  0  0
   -6.7513    3.2086   -6.3777 F   0  0  0  0  0  0  0  0  0  0  0  0
   -2.6814    4.6838   -7.3426 F   0  0  0  0  0  0  0  0  0  0  0  0
   -0.4226    5.4331   -8.6314 F   0  0  0  0  0  0  0  0  0  0  0  0
  1  2  1  0
  1  3  1  0
  2  7  1  0
  2 14  1  0
  2 15  1  0
  3  4  1  0
  3 16  1  0
  3 17  1  0
  4  5  1  0
  4 30  1  0
  4 31  1  0
  5  8  1  0
  5 18  1  0
  5 19  1  0
  6  7  1  0
  6  9  1  0
  6 32  1  0
  6 33  1  0
  7 22  1  0
  7 23  1  0
  8 10  1  0
  8 20  1  0
  8 21  1  0
  9 11  1  0
  9 36  1  0
  9 37  1  0
 10 12  1  0
 10 34  1  0
 10 35  1  0
 11 13  1  0
 11 28  1  0
 11 29  1  0
 12 13  1  0
 12 24  1  0
 12 25  1  0
 13 26  1  0
 13 27  1  0
M  CHG  1   1   1
M  RAD  1   1   2
M  END
$$$$
