
     RDKit          3D

 37 37  0  0  0  0  0  0  0  0999 V2000
   -0.8661   -0.7533   -3.5220 S   0  0  0  0  0  2  0  0  0  0  0  0
    0.7196   -1.2961   -4.8614 Si  0  0  0  0  0  4  0  0  0  0  0  0
   -1.6014    1.2269   -4.0052 Si  0  0  0  0  0  4  0  0  0  0  0  0
   -3.7576    1.0765   -4.4561 Si  0  0  0  0  0  4  0  0  0  0  0  0
   -4.4740    2.7712   -5.7163 Si  0  0  0  0  0  4  0  0  0  0  0  0
   -1.2568   -1.9472   -7.9065 Si  0  0  0  0  0  4  0  0  0  0  0  0
    0.0476   -2.8390   -6.3274 Si  0  0  0  0  0  4  0  0  0  0  0  0
   -3.3828    2.8193   -7.6804 Si  0  0  0  0  0  4  0  0  0  0  0  0
   -0.1054   -1.6271   -9.8077 Si  0  0  0  0  0  4  0  0  0  0  0  0
   -4.4220    1.4077   -9.0379 Si  0  0  0  0  0  4  0  0  0  0  0  0
    0.4488    0.4924  -10.0407 Si  0  0  0  0  0  4  0  0  0  0  0  0
   -3.1616    0.7869  -10.7508 Si  0  0  0  0  0  4  0  0  0  0  0  0
   -1.1890    1.7691  -10.7709 Si  0  0  0  0  0  4  0  0  0  0  0  0
    1.1758    0.0758   -5.7048 F   0  0  0  0  0  0  0  0  0  0  0  0
    2.0712   -1.8577   -4.0226 F   0  0  0  0  0  0  0  0  0  0  0  0
   -1.3024    2.2063   -2.6514 F   0  0  0  0  0  0  0  0  0  0  0  0
   -0.7004    1.8266   -5.2719 F   0  0  0  0  0  0  0  0  0  0  0  0
   -4.3885    4.2343   -4.9252 F   0  0  0  0  0  0  0  0  0  0  0  0
   -6.1160    2.4713   -6.0641 F   0  0  0  0  0  0  0  0  0  0  0  0
   -3.5659    4.3994   -8.2962 F   0  0  0  0  0  0  0  0  0  0  0  0
   -1.7629    2.4885   -7.4992 F   0  0  0  0  0  0  0  0  0  0  0  0
    1.4431   -3.4238   -7.1171 F   0  0  0  0  0  0  0  0  0  0  0  0
   -0.7171   -4.1233   -5.5516 F   0  0  0  0  0  0  0  0  0  0  0  0
   -3.0522   -0.8968  -10.7319 F   0  0  0  0  0  0  0  0  0  0  0  0
   -4.0057    1.1918  -12.1790 F   0  0  0  0  0  0  0  0  0  0  0  0
   -0.8163    2.2298  -12.3734 F   0  0  0  0  0  0  0  0  0  0  0  0
   -1.2175    3.2254   -9.8805 F   0  0  0  0  0  0  0  0  0  0  0  0
    0.9783    1.0718   -8.5277 F   0  0  0  0  0  0  0  0  0  0  0  0
    1.8128    0.5731  -11.0618 F   0  0  0  0  0  0  0  0  0  0  0  0
   -4.0585   -0.3670   -5.2578 F   0  0  0  0  0  0  0  0  0  0  0  0
   -4.6393    1.0764   -3.0339 F   0  0  0  0  0  0  0  0  0  0  0  0
   -1.8876   -0.5040   -7.3238 F   0  0  0  0  0  0  0  0  0  0  0  0
   -2.5474   -2.9830   -8.2132 F   0  0  0  0  0  0  0  0  0  0  0  0
   -5.8635    2.1537   -9.5503 F   0  0  0  0  0  0  0  0  0  0  0  0
   -4.9094    0.0655   -8.1029 F   0  0  0  0  0  0  0  0  0  0  0  0
   -0.9242   -2.2430  -11.1330 F   0  0  0  0  0  0  0  0  0  0  0  0
    1.3322   -2.5348   -9.6550 F   0  0  0  0  0  0  0  0  0  0  0  0
  1  2  1  0
  1  3  1  0
  2  7  1  0
  2 14  1  0
  2 15  1  0
  3  4  1  0
  3 16  1  0
  3 17  1  0
  4  5  1  0
  4 30  1  0
  4 31  1  0
  5  8  1  0
  5 18  1  0
  5 19  1  0
  6  7  1  0
  6  9  1  0
  6 32  1  0
  6 33  1  0
  7 22  1  0
  7 23  1  0
  8 10  1  0
  8 20  1  0
  8 21  1  0
  9 11  1  0
  9 36  1  0
  9 37  1  0
 10 12  1  0
 10 34  1  0
 10 35  1  0
 11 13  1  0
 11 28  1  0
 11 29  1  0
 12 13  1  0
 12 24  1  0
 12 25  1  0
 13 26  1  0
 13 27  1  0
M  CHG  1   1   1
M  RAD  1   1   2
M  END
$$$$

     RDKit          3D

 37 37  0  0  0  0  0  0  0  0999 V2000
   -0.8661   -0.7533   -3.5220 S   0  0  0  0  0  2  0  0  0  0  0  0
    0.3665   -0.7999   -5.3002 Si  0  0  0  0  0  4  0  0  0  0  0  0
   -2.9439   -0.6189   -4.0416 Si  0  0  0  0  0  4  0  0  0  0  0  0
   -4.1112   -2.2210   -3.0361 Si  0  0  0  0  0  4  0  0  0  0  0  0
   -6.0637   -2.5839   -4.0170 Si  0  0  0  0  0  4  0  0  0  0  0  0
   -0.4874   -2.4554   -8.4843 Si  0  0  0  0  0  4  0  0  0  0  0  0
    0.1063   -2.7456   -6.3410 Si  0  0  0  0  0  4  0  0  0  0  0  0
   -6.9115   -0.7297   -4.9183 Si  0  0  0  0  0  4  0  0  0  0  0  0
   -2.5937   -3.0919   -8.7363 Si  0  0  0  0  0  4  0  0  0  0  0  0
   -6.6285   -0.7297   -7.1570 Si  0  0  0  0  0  4  0  0  0  0  0  0
   -3.7854   -1.6274   -9.9096 Si  0  0  0  0  0  4  0  0  0  0  0  0
   -5.3824    0.9659   -7.8054 Si  0  0  0  0  0  4  0  0  0  0  0  0
   -3.7060    0.4095   -9.1188 Si  0  0  0  0  0  4  0  0  0  0  0  0
    0.0156    0.5100   -6.3008 F   0  0  0  0  0  0  0  0  0  0  0  0
    1.9762   -0.6050   -4.7679 F   0  0  0  0  0  0  0  0  0  0  0  0
   -3.0739   -0.8274   -5.6998 F   0  0  0  0  0  0  0  0  0  0  0  0
   -3.5237    0.8627   -3.5255 F   0  0  0  0  0  0  0  0  0  0  0  0
   -7.1245   -3.2326   -2.8854 F   0  0  0  0  0  0  0  0  0  0  0  0
   -5.9139   -3.7434   -5.2601 F   0  0  0  0  0  0  0  0  0  0  0  0
   -8.5315   -0.6241   -4.5164 F   0  0  0  0  0  0  0  0  0  0  0  0
   -6.1251    0.6437   -4.2844 F   0  0  0  0  0  0  0  0  0  0  0  0
    1.5459   -3.6026   -6.2250 F   0  0  0  0  0  0  0  0  0  0  0  0
   -1.0842   -3.6691   -5.5412 F   0  0  0  0  0  0  0  0  0  0  0  0
   -4.8146    1.7624   -6.4031 F   0  0  0  0  0  0  0  0  0  0  0  0
   -6.3672    2.1218   -8.5882 F   0  0  0  0  0  0  0  0  0  0  0  0
   -2.2490    0.6517   -8.2633 F   0  0  0  0  0  0  0  0  0  0  0  0
   -3.6317    1.4985  -10.4337 F   0  0  0  0  0  0  0  0  0  0  0  0
   -5.3615   -2.2399  -10.0403 F   0  0  0  0  0  0  0  0  0  0  0  0
   -3.1695   -1.6483  -11.5038 F   0  0  0  0  0  0  0  0  0  0  0  0
   -4.3197   -1.8279   -1.4166 F   0  0  0  0  0  0  0  0  0  0  0  0
   -3.2216   -3.6663   -3.0842 F   0  0  0  0  0  0  0  0  0  0  0  0
   -0.2363   -0.8542   -8.9090 F   0  0  0  0  0  0  0  0  0  0  0  0
    0.5664   -3.3892   -9.4368 F   0  0  0  0  0  0  0  0  0  0  0  0
   -8.1795   -0.6081   -7.8570 F   0  0  0  0  0  0  0  0  0  0  0  0
   -6.0166   -2.2210   -7.5772 F   0  0  0  0  0  0  0  0  0  0  0  0
   -3.2920   -3.4269   -7.2384 F   0  0  0  0  0  0  0  0  0  0  0  0
   -2.5942   -4.5520   -9.6069 F   0  0  0  0  0  0  0  0  0  0  0  0
  1  2  1  0
  1  3  1  0
  2  7  1  0
  2 14  1  0
  2 15  1  0
  3  4  1  0
  3 16  1  0
  3 17  1  0
  4  5  1  0
  4 30  1  0
  4 31  1  0
  5  8  1  0
  5 18  1  0
  5 19  1  0
  6  7  1  0
  6  9  1  0
  6 32  1  0
  6 33  1  0
  7 22  1  0
  7 23  1  0
  8 10  1  0
  8 20  1  0
  8 21  1  0
  9 11  1  0
  9 36  1  0
  9 37  1  0
 10 12  1  0
 10 34  1  0
 10 35  1  0
 11 13  1  0
 11 28  1  0
 11 29  1  0
 12 13  1  0
 12 24  1  0
 12 25  1  0
 13 26  1  0
 13 27  1  0
M  CHG  1   1   1
M  RAD  1   1   2
M  END
$$$$

     RDKit          3D

 37 37  0  0  0  0  0  0  0  0999 V2000
   -0.8661   -0.7533   -3.5220 S   0  0  0  0  0  2  0  0  0  0  0  0
    0.3719   -0.8779   -5.2927 Si  0  0  0  0  0  4  0  0  0  0  0  0
   -2.9341   -0.5413   -4.0546 Si  0  0  0  0  0  4  0  0  0  0  0  0
   -4.1713   -2.0783   -3.0312 Si  0  0  0  0  0  4  0  0  0  0  0  0
   -6.1325   -2.3753   -4.0168 Si  0  0  0  0  0  4  0  0  0  0  0  0
   -0.5348   -2.5453   -8.4560 Si  0  0  0  0  0  4  0  0  0  0  0  0
    0.0364   -2.8269   -6.3054 Si  0  0  0  0  0  4  0  0  0  0  0  0
   -6.8988   -0.5017   -4.9505 Si  0  0  0  0  0  4  0  0  0  0  0  0
   -2.6645   -3.0981   -8.7095 Si  0  0  0  0  0  4  0  0  0  0  0  0
   -6.6055   -0.5477   -7.1875 Si  0  0  0  0  0  4  0  0  0  0  0  0
   -3.7891   -1.6039   -9.9111 Si  0  0  0  0  0  4  0  0  0  0  0  0
   -5.2875    1.0849   -7.8547 Si  0  0  0  0  0  4  0  0  0  0  0  0
   -3.6293    0.4398   -9.1507 Si  0  0  0  0  0  4  0  0  0  0  0  0
    0.0800    0.4299   -6.3149 F   0  0  0  0  0  0  0  0  0  0  0  0
    1.9856   -0.7414   -4.7549 F   0  0  0  0  0  0  0  0  0  0  0  0
   -3.0649   -0.7696   -5.7101 F   0  0  0  0  0  0  0  0  0  0  0  0
   -3.4547    0.9707   -3.5640 F   0  0  0  0  0  0  0  0  0  0  0  0
   -7.2245   -2.9624   -2.8813 F   0  0  0  0  0  0  0  0  0  0  0  0
   -6.0250   -3.5589   -5.2416 F   0  0  0  0  0  0  0  0  0  0  0  0
   -8.5149   -0.3233   -4.5589 F   0  0  0  0  0  0  0  0  0  0  0  0
   -6.0593    0.8476   -4.3333 F   0  0  0  0  0  0  0  0  0  0  0  0
    1.4387   -3.7407   -6.1688 F   0  0  0  0  0  0  0  0  0  0  0  0
   -1.1950   -3.6882   -5.4981 F   0  0  0  0  0  0  0  0  0  0  0  0
   -4.6938    1.8787   -6.4617 F   0  0  0  0  0  0  0  0  0  0  0  0
   -6.2200    2.2684   -8.6602 F   0  0  0  0  0  0  0  0  0  0  0  0
   -2.1676    0.6348   -8.2913 F   0  0  0  0  0  0  0  0  0  0  0  0
   -3.5039    1.5046  -10.4815 F   0  0  0  0  0  0  0  0  0  0  0  0
   -5.3886   -2.1528  -10.0409 F   0  0  0  0  0  0  0  0  0  0  0  0
   -3.1672   -1.6746  -11.5015 F   0  0  0  0  0  0  0  0  0  0  0  0
   -4.3710   -1.6522   -1.4189 F   0  0  0  0  0  0  0  0  0  0  0  0
   -3.3420   -3.5596   -3.0528 F   0  0  0  0  0  0  0  0  0  0  0  0
   -0.2158   -0.9625   -8.9035 F   0  0  0  0  0  0  0  0  0  0  0  0
    0.4839   -3.5362   -9.3887 F   0  0  0  0  0  0  0  0  0  0  0  0
   -8.1469   -0.3729   -7.8974 F   0  0  0  0  0  0  0  0  0  0  0  0
   -6.0539   -2.0692   -7.5818 F   0  0  0  0  0  0  0  0  0  0  0  0
   -3.3830   -3.3812   -7.2104 F   0  0  0  0  0  0  0  0  0  0  0  0
   -2.7212   -4.5702   -9.5579 F   0  0  0  0  0  0  0  0  0  0  0  0
  1  2  1  0
  1  3  1  0
  2  7  1  0
  2 14  1  0
  2 15  1  0
  3  4  1  0
  3 16  1  0
  3 17  1  0
  4  5  1  0
  4 30  1  0
  4 31  1  0
  5  8  1  0
  5 18  1  0
  5 19  1  0
  6  7  1  0
  6  9  1  0
  6 32  1  0
  6 33  1  0
  7 22  1  0
  7 23  1  0
  8 10  1  0
  8 20  1  0
  8 21  1  0
  9 11  1  0
  9 36  1  0
  9 37  1  0
 10 12  1  0
 10 34  1  0
 10 35  1  0
 11 13  1  0
 11 28  1  0
 11 29  1  0
 12 13  1  0
 12 24  1  0
 12 25  1  0
 13 26  1  0
 13 27  1  0
M  CHG  1   1   1
M  RAD  1   1   2
M  END
$$$$

     RDKit          3D

 37 37  0  0  0  0  0  0  0  0999 V2000
   -0.8661   -0.7533   -3.5220 S   0  0  0  0  0  2  0  0  0  0  0  0
   -0.7814    0.4142   -5.2701 Si  0  0  0  0  0  4  0  0  0  0  0  0
   -2.2376   -2.3563   -3.6020 Si  0  0  0  0  0  4  0  0  0  0  0  0
   -3.3043   -2.5419   -5.5204 Si  0  0  0  0  0  4  0  0  0  0  0  0
   -2.0846   -3.3172   -7.1708 Si  0  0  0  0  0  4  0  0  0  0  0  0
   -0.8114    3.7726   -6.5336 Si  0  0  0  0  0  4  0  0  0  0  0  0
   -1.7001    2.4516   -4.9787 Si  0  0  0  0  0  4  0  0  0  0  0  0
   -2.8896   -2.4891   -9.0841 Si  0  0  0  0  0  4  0  0  0  0  0  0
   -2.2381    4.2777   -8.1392 Si  0  0  0  0  0  4  0  0  0  0  0  0
   -1.3047   -1.8122  -10.4483 Si  0  0  0  0  0  4  0  0  0  0  0  0
   -3.5107    2.5816   -8.7541 Si  0  0  0  0  0  4  0  0  0  0  0  0
   -0.9398    0.4021  -10.2887 Si  0  0  0  0  0  4  0  0  0  0  0  0
   -2.7741    1.5685  -10.5884 Si  0  0  0  0  0  4  0  0  0  0  0  0
    0.8292    0.6221   -5.7900 F   0  0  0  0  0  0  0  0  0  0  0  0
   -1.6228   -0.3131   -6.5045 F   0  0  0  0  0  0  0  0  0  0  0  0
   -3.4128   -2.0843   -2.3912 F   0  0  0  0  0  0  0  0  0  0  0  0
   -1.4457   -3.7803   -3.1769 F   0  0  0  0  0  0  0  0  0  0  0  0
   -0.4434   -3.0261   -7.0019 F   0  0  0  0  0  0  0  0  0  0  0  0
   -2.2780   -5.0120   -7.2364 F   0  0  0  0  0  0  0  0  0  0  0  0
   -3.9323   -1.1809   -8.7787 F   0  0  0  0  0  0  0  0  0  0  0  0
   -3.8426   -3.6581   -9.8833 F   0  0  0  0  0  0  0  0  0  0  0  0
   -3.3782    2.3586   -5.1154 F   0  0  0  0  0  0  0  0  0  0  0  0
   -1.3064    2.9844   -3.4203 F   0  0  0  0  0  0  0  0  0  0  0  0
   -0.1263    0.7666   -8.8693 F   0  0  0  0  0  0  0  0  0  0  0  0
    0.1366    0.7716  -11.5650 F   0  0  0  0  0  0  0  0  0  0  0  0
   -4.0010    0.5256  -11.1344 F   0  0  0  0  0  0  0  0  0  0  0  0
   -2.5768    2.7421  -11.7867 F   0  0  0  0  0  0  0  0  0  0  0  0
   -5.0417    3.2315   -9.1592 F   0  0  0  0  0  0  0  0  0  0  0  0
   -3.7793    1.5240   -7.4909 F   0  0  0  0  0  0  0  0  0  0  0  0
   -3.9902   -1.0450   -5.9046 F   0  0  0  0  0  0  0  0  0  0  0  0
   -4.6159   -3.6090   -5.2736 F   0  0  0  0  0  0  0  0  0  0  0  0
    0.6181    3.1211   -7.1661 F   0  0  0  0  0  0  0  0  0  0  0  0
   -0.3606    5.2245   -5.7581 F   0  0  0  0  0  0  0  0  0  0  0  0
   -1.7962   -2.1056  -12.0499 F   0  0  0  0  0  0  0  0  0  0  0  0
    0.1496   -2.6003  -10.2231 F   0  0  0  0  0  0  0  0  0  0  0  0
   -1.3560    4.8967   -9.4545 F   0  0  0  0  0  0  0  0  0  0  0  0
   -3.2072    5.5636   -7.5853 F   0  0  0  0  0  0  0  0  0  0  0  0
  1  2  1  0
  1  3  1  0
  2  7  1  0
  2 14  1  0
  2 15  1  0
  3  4  1  0
  3 16  1  0
  3 17  1  0
  4  5  1  0
  4 30  1  0
  4 31  1  0
  5  8  1  0
  5 18  1  0
  5 19  1  0
  6  7  1  0
  6  9  1  0
  6 32  1  0
  6 33  1  0
  7 22  1  0
  7 23  1  0
  8 10  1  0
  8 20  1  0
  8 21  1  0
  9 11  1  0
  9 36  1  0
  9 37  1  0
 10 12  1  0
 10 34  1  0
 10 35  1  0
 11 13  1  0
 11 28  1  0
 11 29  1  0
 12 13  1  0
 12 24  1  0
 12 25  1  0
 13 26  1  0
 13 27  1  0
M  CHG  1   1   1
M  RAD  1   1   2
M  END
$$$$
