
     RDKit          3D

 37 37  0  0  0  0  0  0  0  0999 V2000
   -1.2226    0.0979    2.1386 S   0  0  0  0  0  2  0  0  0  0  0  0
   -3.2885   -0.1894    2.3934 Si  0  0  0  0  0  4  0  0  0  0  0  0
   -0.0767    0.0523    3.9059 Si  0  0  0  0  0  4  0  0  0  0  0  0
   -0.3009   -1.8433    5.0547 Si  0  0  0  0  0  4  0  0  0  0  0  0
   -0.1037   -1.4311    7.2561 Si  0  0  0  0  0  4  0  0  0  0  0  0
   -6.2462    0.8350    4.1955 Si  0  0  0  0  0  4  0  0  0  0  0  0
   -4.2949    1.5245    3.4121 Si  0  0  0  0  0  4  0  0  0  0  0  0
   -1.8381   -2.2560    8.3343 Si  0  0  0  0  0  4  0  0  0  0  0  0
   -6.3063    0.7339    6.4016 Si  0  0  0  0  0  4  0  0  0  0  0  0
   -2.4587   -1.0799   10.0791 Si  0  0  0  0  0  4  0  0  0  0  0  0
   -5.0582    2.3086    7.3579 Si  0  0  0  0  0  4  0  0  0  0  0  0
   -2.5076    1.0954    9.7302 Si  0  0  0  0  0  4  0  0  0  0  0  0
   -2.9712    1.6131    7.6168 Si  0  0  0  0  0  4  0  0  0  0  0  0
   -3.6741   -1.6279    3.2031 F   0  0  0  0  0  0  0  0  0  0  0  0
   -3.9938   -0.3204    0.8533 F   0  0  0  0  0  0  0  0  0  0  0  0
    1.5548    0.1912    3.4943 F   0  0  0  0  0  0  0  0  0  0  0  0
   -0.4446    1.3504    4.9233 F   0  0  0  0  0  0  0  0  0  0  0  0
    1.3017   -2.2072    7.7870 F   0  0  0  0  0  0  0  0  0  0  0  0
    0.1085    0.2174    7.5338 F   0  0  0  0  0  0  0  0  0  0  0  0
   -3.1458   -2.4095    7.2558 F   0  0  0  0  0  0  0  0  0  0  0  0
   -1.4537   -3.8335    8.8386 F   0  0  0  0  0  0  0  0  0  0  0  0
   -3.3356    2.2361    4.5662 F   0  0  0  0  0  0  0  0  0  0  0  0
   -4.6054    2.6961    2.2105 F   0  0  0  0  0  0  0  0  0  0  0  0
   -3.6888    1.8027   10.7227 F   0  0  0  0  0  0  0  0  0  0  0  0
   -1.0223    1.7535   10.1997 F   0  0  0  0  0  0  0  0  0  0  0  0
   -2.7758    0.1967    6.7058 F   0  0  0  0  0  0  0  0  0  0  0  0
   -1.8850    2.8098    7.1289 F   0  0  0  0  0  0  0  0  0  0  0  0
   -5.7411    2.8030    8.8301 F   0  0  0  0  0  0  0  0  0  0  0  0
   -5.0508    3.6566    6.3193 F   0  0  0  0  0  0  0  0  0  0  0  0
   -1.8351   -2.4612    4.7603 F   0  0  0  0  0  0  0  0  0  0  0  0
    0.8169   -3.0021    4.5576 F   0  0  0  0  0  0  0  0  0  0  0  0
   -6.6347   -0.7103    3.5893 F   0  0  0  0  0  0  0  0  0  0  0  0
   -7.5142    1.8564    3.6863 F   0  0  0  0  0  0  0  0  0  0  0  0
   -4.0270   -1.5770   10.5321 F   0  0  0  0  0  0  0  0  0  0  0  0
   -1.4474   -1.4148   11.3858 F   0  0  0  0  0  0  0  0  0  0  0  0
   -5.7143   -0.7725    6.9316 F   0  0  0  0  0  0  0  0  0  0  0  0
   -7.9131    0.8225    6.9428 F   0  0  0  0  0  0  0  0  0  0  0  0
  1  2  1  0
  1  3  1  0
  2  7  1  0
  2 14  1  0
  2 15  1  0
  3  4  1  0
  3 16  1  0
  3 17  1  0
  4  5  1  0
  4 30  1  0
  4 31  1  0
  5  8  1  0
  5 18  1  0
  5 19  1  0
  6  7  1  0
  6  9  1  0
  6 32  1  0
  6 33  1  0
  7 22  1  0
  7 23  1  0
  8 10  1  0
  8 20  1  0
  8 21  1  0
  9 11  1  0
  9 36  1  0
  9 37  1  0
 10 12  1  0
 10 34  1  0
 10 35  1  0
 11 13  1  0
 11 28  1  0
 11 29  1  0
 12 13  1  0
 12 24  1  0
 12 25  1  0
 13 26  1  0
 13 27  1  0
M  CHG  1   1   1
M  RAD  1   1   2
M  END
$$$$

     RDKit          3D

 37 37  0  0  0  0  0  0  0  0999 V2000
   -1.2226    0.0979    2.1386 S   0  0  0  0  0  2  0  0  0  0  0  0
   -2.5403    1.7575    2.3369 Si  0  0  0  0  0  4  0  0  0  0  0  0
    0.3173    0.0426    3.5850 Si  0  0  0  0  0  4  0  0  0  0  0  0
   -0.2552    1.1285    5.4478 Si  0  0  0  0  0  4  0  0  0  0  0  0
    1.1092    0.7066    7.1294 Si  0  0  0  0  0  4  0  0  0  0  0  0
   -4.5533    2.8012    5.2466 Si  0  0  0  0  0  4  0  0  0  0  0  0
   -4.3129    1.2781    3.6038 Si  0  0  0  0  0  4  0  0  0  0  0  0
    1.7643    2.6289    8.0875 Si  0  0  0  0  0  4  0  0  0  0  0  0
   -5.1925    1.8449    7.1411 Si  0  0  0  0  0  4  0  0  0  0  0  0
    0.2405    3.3197    9.5853 Si  0  0  0  0  0  4  0  0  0  0  0  0
   -3.7994    2.2179    8.8180 Si  0  0  0  0  0  4  0  0  0  0  0  0
   -1.1495    4.7958    8.7234 Si  0  0  0  0  0  4  0  0  0  0  0  0
   -3.2775    4.3322    9.0841 Si  0  0  0  0  0  4  0  0  0  0  0  0
   -3.0495    2.1822    0.7822 F   0  0  0  0  0  0  0  0  0  0  0  0
   -1.7303    3.1306    2.9383 F   0  0  0  0  0  0  0  0  0  0  0  0
    0.5662   -1.5883    4.0237 F   0  0  0  0  0  0  0  0  0  0  0  0
    1.7992    0.6052    2.9941 F   0  0  0  0  0  0  0  0  0  0  0  0
    2.4541   -0.2090    6.6579 F   0  0  0  0  0  0  0  0  0  0  0  0
    0.3283   -0.1949    8.3498 F   0  0  0  0  0  0  0  0  0  0  0  0
    3.2631    2.4142    8.7828 F   0  0  0  0  0  0  0  0  0  0  0  0
    1.9223    3.8110    6.8782 F   0  0  0  0  0  0  0  0  0  0  0  0
   -4.2095   -0.2768    4.2523 F   0  0  0  0  0  0  0  0  0  0  0  0
   -5.7241    1.3228    2.6774 F   0  0  0  0  0  0  0  0  0  0  0  0
   -0.8581    6.3425    9.3912 F   0  0  0  0  0  0  0  0  0  0  0  0
   -0.8224    4.9825    7.0583 F   0  0  0  0  0  0  0  0  0  0  0  0
   -3.6702    4.8892   10.6460 F   0  0  0  0  0  0  0  0  0  0  0  0
   -4.2112    5.2788    8.0149 F   0  0  0  0  0  0  0  0  0  0  0  0
   -4.5812    1.6762   10.2395 F   0  0  0  0  0  0  0  0  0  0  0  0
   -2.3932    1.2907    8.7060 F   0  0  0  0  0  0  0  0  0  0  0  0
   -0.2362    2.7681    5.1209 F   0  0  0  0  0  0  0  0  0  0  0  0
   -1.7910    0.5745    5.8558 F   0  0  0  0  0  0  0  0  0  0  0  0
   -5.7322    3.9288    4.8042 F   0  0  0  0  0  0  0  0  0  0  0  0
   -3.1035    3.6153    5.4021 F   0  0  0  0  0  0  0  0  0  0  0  0
   -0.5416    2.0133   10.3033 F   0  0  0  0  0  0  0  0  0  0  0  0
    1.1366    4.0595   10.8392 F   0  0  0  0  0  0  0  0  0  0  0  0
   -6.7464    2.3117    7.5997 F   0  0  0  0  0  0  0  0  0  0  0  0
   -5.2471    0.1597    6.8759 F   0  0  0  0  0  0  0  0  0  0  0  0
  1  2  1  0
  1  3  1  0
  2  7  1  0
  2 14  1  0
  2 15  1  0
  3  4  1  0
  3 16  1  0
  3 17  1  0
  4  5  1  0
  4 30  1  0
  4 31  1  0
  5  8  1  0
  5 18  1  0
  5 19  1  0
  6  7  1  0
  6  9  1  0
  6 32  1  0
  6 33  1  0
  7 22  1  0
  7 23  1  0
  8 10  1  0
  8 20  1  0
  8 21  1  0
  9 11  1  0
  9 36  1  0
  9 37  1  0
 10 12  1  0
 10 34  1  0
 10 35  1  0
 11 13  1  0
 11 28  1  0
 11 29  1  0
 12 13  1  0
 12 24  1  0
 12 25  1  0
 13 26  1  0
 13 27  1  0
M  CHG  1   1   1
M  RAD  1   1   2
M  END
$$$$
