
     RDKit          3D

 37 37  0  0  0  0  0  0  0  0999 V2000
   -0.0724    0.1023   -3.1518 S   0  0  0  0  0  2  0  0  0  0  0  0
    1.1543    1.0798   -4.5850 Si  0  0  0  0  0  4  0  0  0  0  0  0
   -2.0420   -0.2874   -3.8978 Si  0  0  0  0  0  4  0  0  0  0  0  0
   -1.9795   -1.5448   -5.7469 Si  0  0  0  0  0  4  0  0  0  0  0  0
   -2.2327   -0.3086   -7.5775 Si  0  0  0  0  0  4  0  0  0  0  0  0
    3.4546    0.0858   -7.2445 Si  0  0  0  0  0  4  0  0  0  0  0  0
    2.9507   -0.1686   -5.0912 Si  0  0  0  0  0  4  0  0  0  0  0  0
   -3.8630   -1.0433   -8.8780 Si  0  0  0  0  0  4  0  0  0  0  0  0
    2.9582   -1.7310   -8.4308 Si  0  0  0  0  0  4  0  0  0  0  0  0
   -3.1107   -2.4692  -10.4344 Si  0  0  0  0  0  4  0  0  0  0  0  0
    2.1191   -1.1857  -10.4383 Si  0  0  0  0  0  4  0  0  0  0  0  0
   -1.3738   -1.6325  -11.5357 Si  0  0  0  0  0  4  0  0  0  0  0  0
    0.5175   -2.6603  -10.9500 Si  0  0  0  0  0  4  0  0  0  0  0  0
    0.2951    1.4641   -5.9802 F   0  0  0  0  0  0  0  0  0  0  0  0
    1.6956    2.5403   -3.9071 F   0  0  0  0  0  0  0  0  0  0  0  0
   -2.8966    1.1414   -4.1572 F   0  0  0  0  0  0  0  0  0  0  0  0
   -2.8621   -1.1764   -2.7046 F   0  0  0  0  0  0  0  0  0  0  0  0
   -2.4996    1.3134   -7.1568 F   0  0  0  0  0  0  0  0  0  0  0  0
   -0.7905   -0.3394   -8.4803 F   0  0  0  0  0  0  0  0  0  0  0  0
   -4.5226    0.2859   -9.7076 F   0  0  0  0  0  0  0  0  0  0  0  0
   -5.0909   -1.7895   -8.0267 F   0  0  0  0  0  0  0  0  0  0  0  0
    2.7201   -1.7740   -4.6749 F   0  0  0  0  0  0  0  0  0  0  0  0
    4.2716    0.4008   -4.1904 F   0  0  0  0  0  0  0  0  0  0  0  0
   -1.2523    0.0433  -11.3408 F   0  0  0  0  0  0  0  0  0  0  0  0
   -1.6031   -1.9204  -13.2018 F   0  0  0  0  0  0  0  0  0  0  0  0
    1.1026   -3.6436  -12.1898 F   0  0  0  0  0  0  0  0  0  0  0  0
    0.1767   -3.6529   -9.6295 F   0  0  0  0  0  0  0  0  0  0  0  0
    3.3774   -1.2429  -11.5756 F   0  0  0  0  0  0  0  0  0  0  0  0
    1.5085    0.3739  -10.4453 F   0  0  0  0  0  0  0  0  0  0  0  0
   -0.4736   -2.3276   -5.7602 F   0  0  0  0  0  0  0  0  0  0  0  0
   -3.1493   -2.7765   -5.6772 F   0  0  0  0  0  0  0  0  0  0  0  0
    5.1088    0.3965   -7.4564 F   0  0  0  0  0  0  0  0  0  0  0  0
    2.6151    1.4292   -7.8399 F   0  0  0  0  0  0  0  0  0  0  0  0
   -2.7333   -3.9664   -9.7616 F   0  0  0  0  0  0  0  0  0  0  0  0
   -4.4022   -2.7324  -11.5178 F   0  0  0  0  0  0  0  0  0  0  0  0
    1.8476   -2.7196   -7.6200 F   0  0  0  0  0  0  0  0  0  0  0  0
    4.3422   -2.6829   -8.6973 F   0  0  0  0  0  0  0  0  0  0  0  0
  1  2  1  0
  1  3  1  0
  2  7  1  0
  2 14  1  0
  2 15  1  0
  3  4  1  0
  3 16  1  0
  3 17  1  0
  4  5  1  0
  4 30  1  0
  4 31  1  0
  5  8  1  0
  5 18  1  0
  5 19  1  0
  6  7  1  0
  6  9  1  0
  6 32  1  0
  6 33  1  0
  7 22  1  0
  7 23  1  0
  8 10  1  0
  8 20  1  0
  8 21  1  0
  9 11  1  0
  9 36  1  0
  9 37  1  0
 10 12  1  0
 10 34  1  0
 10 35  1  0
 11 13  1  0
 11 28  1  0
 11 29  1  0
 12 13  1  0
 12 24  1  0
 12 25  1  0
 13 26  1  0
 13 27  1  0
M  CHG  1   1   1
M  RAD  1   1   2
M  END
$$$$

     RDKit          3D

 37 37  0  0  0  0  0  0  0  0999 V2000
   -0.0724    0.1023   -3.1518 S   0  0  0  0  0  2  0  0  0  0  0  0
   -1.3631   -0.8782   -4.5255 Si  0  0  0  0  0  4  0  0  0  0  0  0
    1.8526    0.5137   -3.9963 Si  0  0  0  0  0  4  0  0  0  0  0  0
    1.6836    1.7808   -5.8322 Si  0  0  0  0  0  4  0  0  0  0  0  0
    1.8523    0.5571   -7.6808 Si  0  0  0  0  0  4  0  0  0  0  0  0
   -3.8065    0.1100   -7.0565 Si  0  0  0  0  0  4  0  0  0  0  0  0
   -3.1940    0.3569   -4.9306 Si  0  0  0  0  0  4  0  0  0  0  0  0
    3.4067    1.3135   -9.0594 Si  0  0  0  0  0  4  0  0  0  0  0  0
   -3.3879    1.9378   -8.2558 Si  0  0  0  0  0  4  0  0  0  0  0  0
    2.5626    2.7413  -10.5662 Si  0  0  0  0  0  4  0  0  0  0  0  0
   -2.6492    1.4111  -10.3073 Si  0  0  0  0  0  4  0  0  0  0  0  0
    0.7783    1.8952  -11.5812 Si  0  0  0  0  0  4  0  0  0  0  0  0
   -1.0890    2.9028  -10.8923 Si  0  0  0  0  0  4  0  0  0  0  0  0
   -0.5740   -1.2470   -5.9656 F   0  0  0  0  0  0  0  0  0  0  0  0
   -1.8559   -2.3472   -3.8293 F   0  0  0  0  0  0  0  0  0  0  0  0
    2.7049   -0.9060   -4.3081 F   0  0  0  0  0  0  0  0  0  0  0  0
    2.7256    1.4033   -2.8418 F   0  0  0  0  0  0  0  0  0  0  0  0
    2.1547   -1.0648   -7.2842 F   0  0  0  0  0  0  0  0  0  0  0  0
    0.3651    0.5800   -8.5076 F   0  0  0  0  0  0  0  0  0  0  0  0
    4.0340   -0.0051   -9.9300 F   0  0  0  0  0  0  0  0  0  0  0  0
    4.6706    2.0659   -8.2683 F   0  0  0  0  0  0  0  0  0  0  0  0
   -2.9561    1.9620   -4.5172 F   0  0  0  0  0  0  0  0  0  0  0  0
   -4.4616   -0.2292   -3.9661 F   0  0  0  0  0  0  0  0  0  0  0  0
    0.6815    0.2174  -11.3904 F   0  0  0  0  0  0  0  0  0  0  0  0
    0.9185    2.1944  -13.2552 F   0  0  0  0  0  0  0  0  0  0  0  0
   -1.7460    3.8877  -12.0943 F   0  0  0  0  0  0  0  0  0  0  0  0
   -0.6889    3.8911   -9.5852 F   0  0  0  0  0  0  0  0  0  0  0  0
   -3.9651    1.4634  -11.3777 F   0  0  0  0  0  0  0  0  0  0  0  0
   -2.0263   -0.1428  -10.3553 F   0  0  0  0  0  0  0  0  0  0  0  0
    0.1723    2.5501   -5.7628 F   0  0  0  0  0  0  0  0  0  0  0  0
    2.8447    3.0224   -5.8156 F   0  0  0  0  0  0  0  0  0  0  0  0
   -5.4667   -0.2142   -7.1844 F   0  0  0  0  0  0  0  0  0  0  0  0
   -2.9873   -1.2225   -7.7026 F   0  0  0  0  0  0  0  0  0  0  0  0
    2.2076    4.2313   -9.8658 F   0  0  0  0  0  0  0  0  0  0  0  0
    3.7939    3.0220  -11.7134 F   0  0  0  0  0  0  0  0  0  0  0  0
   -2.2454    2.9317   -7.4977 F   0  0  0  0  0  0  0  0  0  0  0  0
   -4.7920    2.8787   -8.4447 F   0  0  0  0  0  0  0  0  0  0  0  0
  1  2  1  0
  1  3  1  0
  2  7  1  0
  2 14  1  0
  2 15  1  0
  3  4  1  0
  3 16  1  0
  3 17  1  0
  4  5  1  0
  4 30  1  0
  4 31  1  0
  5  8  1  0
  5 18  1  0
  5 19  1  0
  6  7  1  0
  6  9  1  0
  6 32  1  0
  6 33  1  0
  7 22  1  0
  7 23  1  0
  8 10  1  0
  8 20  1  0
  8 21  1  0
  9 11  1  0
  9 36  1  0
  9 37  1  0
 10 12  1  0
 10 34  1  0
 10 35  1  0
 11 13  1  0
 11 28  1  0
 11 29  1  0
 12 13  1  0
 12 24  1  0
 12 25  1  0
 13 26  1  0
 13 27  1  0
M  CHG  1   1   1
M  RAD  1   1   2
M  END
$$$$

     RDKit          3D

 37 37  0  0  0  0  0  0  0  0999 V2000
   -0.0724    0.1023   -3.1518 S   0  0  0  0  0  2  0  0  0  0  0  0
   -1.2904   -0.9644   -4.5276 Si  0  0  0  0  0  4  0  0  0  0  0  0
    1.8188    0.6503   -3.9950 Si  0  0  0  0  0  4  0  0  0  0  0  0
    1.5610    1.9056   -5.8286 Si  0  0  0  0  0  4  0  0  0  0  0  0
    1.8160    0.7003   -7.6794 Si  0  0  0  0  0  4  0  0  0  0  0  0
   -3.7971   -0.1467   -7.0574 Si  0  0  0  0  0  4  0  0  0  0  0  0
   -3.2040    0.1389   -4.9310 Si  0  0  0  0  0  4  0  0  0  0  0  0
    3.3133    1.5672   -9.0562 Si  0  0  0  0  0  4  0  0  0  0  0  0
   -3.5086    1.7082   -8.2534 Si  0  0  0  0  0  4  0  0  0  0  0  0
    2.3705    2.9345  -10.5607 Si  0  0  0  0  0  4  0  0  0  0  0  0
   -2.7342    1.2389  -10.3056 Si  0  0  0  0  0  4  0  0  0  0  0  0
    0.6506    1.9663  -11.5776 Si  0  0  0  0  0  4  0  0  0  0  0  0
   -1.2832    2.8381  -10.8874 Si  0  0  0  0  0  4  0  0  0  0  0  0
   -0.4770   -1.2739   -5.9681 F   0  0  0  0  0  0  0  0  0  0  0  0
   -1.6783   -2.4659   -3.8342 F   0  0  0  0  0  0  0  0  0  0  0  0
    2.7694   -0.7051   -4.3092 F   0  0  0  0  0  0  0  0  0  0  0  0
    2.6266    1.5973   -2.8386 F   0  0  0  0  0  0  0  0  0  0  0  0
    2.2322   -0.8969   -7.2858 F   0  0  0  0  0  0  0  0  0  0  0  0
    0.3310    0.6195   -8.5066 F   0  0  0  0  0  0  0  0  0  0  0  0
    4.0322    0.2978   -9.9290 F   0  0  0  0  0  0  0  0  0  0  0  0
    4.5206    2.4056   -8.2634 F   0  0  0  0  0  0  0  0  0  0  0  0
   -3.0801    1.7561   -4.5145 F   0  0  0  0  0  0  0  0  0  0  0  0
   -4.4271   -0.5371   -3.9679 F   0  0  0  0  0  0  0  0  0  0  0  0
    0.6726    0.2855  -11.3899 F   0  0  0  0  0  0  0  0  0  0  0  0
    0.7696    2.2777  -13.2511 F   0  0  0  0  0  0  0  0  0  0  0  0
   -2.0081    3.7764  -12.0878 F   0  0  0  0  0  0  0  0  0  0  0  0
   -0.9542    3.8498   -9.5785 F   0  0  0  0  0  0  0  0  0  0  0  0
   -4.0504    1.2000  -11.3762 F   0  0  0  0  0  0  0  0  0  0  0  0
   -2.0031   -0.2671  -10.3563 F   0  0  0  0  0  0  0  0  0  0  0  0
   -0.0009    2.5661   -5.7582 F   0  0  0  0  0  0  0  0  0  0  0  0
    2.6314    3.2261   -5.8095 F   0  0  0  0  0  0  0  0  0  0  0  0
   -5.4302   -0.5872   -7.1864 F   0  0  0  0  0  0  0  0  0  0  0  0
   -2.8858   -1.4168   -7.7057 F   0  0  0  0  0  0  0  0  0  0  0  0
    1.9111    4.3945   -9.8577 F   0  0  0  0  0  0  0  0  0  0  0  0
    3.5791    3.3037  -11.7070 F   0  0  0  0  0  0  0  0  0  0  0  0
   -2.4393    2.7791   -7.4931 F   0  0  0  0  0  0  0  0  0  0  0  0
   -4.9756    2.5479   -8.4409 F   0  0  0  0  0  0  0  0  0  0  0  0
  1  2  1  0
  1  3  1  0
  2  7  1  0
  2 14  1  0
  2 15  1  0
  3  4  1  0
  3 16  1  0
  3 17  1  0
  4  5  1  0
  4 30  1  0
  4 31  1  0
  5  8  1  0
  5 18  1  0
  5 19  1  0
  6  7  1  0
  6  9  1  0
  6 32  1  0
  6 33  1  0
  7 22  1  0
  7 23  1  0
  8 10  1  0
  8 20  1  0
  8 21  1  0
  9 11  1  0
  9 36  1  0
  9 37  1  0
 10 12  1  0
 10 34  1  0
 10 35  1  0
 11 13  1  0
 11 28  1  0
 11 29  1  0
 12 13  1  0
 12 24  1  0
 12 25  1  0
 13 26  1  0
 13 27  1  0
M  CHG  1   1   1
M  RAD  1   1   2
M  END
$$$$
