
     RDKit          3D

 37 37  0  0  0  0  0  0  0  0999 V2000
    0.6450    0.6860   -2.8721 S   0  0  0  0  0  2  0  0  0  0  0  0
    0.4033   -1.0211   -4.1112 Si  0  0  0  0  0  4  0  0  0  0  0  0
    1.5028    2.3408   -3.9008 Si  0  0  0  0  0  4  0  0  0  0  0  0
    0.2879    2.9345   -5.6819 Si  0  0  0  0  0  4  0  0  0  0  0  0
    1.6639    3.2797   -7.4050 Si  0  0  0  0  0  4  0  0  0  0  0  0
    3.3498   -1.2074   -6.3227 Si  0  0  0  0  0  4  0  0  0  0  0  0
    2.3301   -2.0571   -4.5201 Si  0  0  0  0  0  4  0  0  0  0  0  0
    0.7760    2.5421   -9.3168 Si  0  0  0  0  0  4  0  0  0  0  0  0
    4.3587   -2.8259   -7.5026 Si  0  0  0  0  0  4  0  0  0  0  0  0
    2.3309    1.3672  -10.4241 Si  0  0  0  0  0  4  0  0  0  0  0  0
    4.2422   -2.3589   -9.7074 Si  0  0  0  0  0  4  0  0  0  0  0  0
    1.5013   -0.4758  -11.3064 Si  0  0  0  0  0  4  0  0  0  0  0  0
    2.1168   -2.3159  -10.2815 Si  0  0  0  0  0  4  0  0  0  0  0  0
   -0.3446   -0.6692   -5.5721 F   0  0  0  0  0  0  0  0  0  0  0  0
   -0.6143   -2.1181   -3.2903 F   0  0  0  0  0  0  0  0  0  0  0  0
    3.0858    2.0197   -4.3690 F   0  0  0  0  0  0  0  0  0  0  0  0
    1.5553    3.6504   -2.8309 F   0  0  0  0  0  0  0  0  0  0  0  0
    2.0695    4.9086   -7.4912 F   0  0  0  0  0  0  0  0  0  0  0  0
    3.1124    2.4340   -7.0972 F   0  0  0  0  0  0  0  0  0  0  0  0
    0.3034    3.9070  -10.2066 F   0  0  0  0  0  0  0  0  0  0  0  0
   -0.5981    1.5961   -9.0281 F   0  0  0  0  0  0  0  0  0  0  0  0
    1.9873   -3.6840   -4.8711 F   0  0  0  0  0  0  0  0  0  0  0  0
    3.3527   -2.0040   -3.1684 F   0  0  0  0  0  0  0  0  0  0  0  0
    1.8924   -0.6222  -12.9606 F   0  0  0  0  0  0  0  0  0  0  0  0
   -0.2010   -0.3679  -11.2442 F   0  0  0  0  0  0  0  0  0  0  0  0
    1.0913   -2.5601   -8.9413 F   0  0  0  0  0  0  0  0  0  0  0  0
    1.8236   -3.6364  -11.3235 F   0  0  0  0  0  0  0  0  0  0  0  0
    5.0596   -0.9413  -10.0398 F   0  0  0  0  0  0  0  0  0  0  0  0
    5.0860   -3.6173  -10.4921 F   0  0  0  0  0  0  0  0  0  0  0  0
   -0.5117    4.4042   -5.3701 F   0  0  0  0  0  0  0  0  0  0  0  0
   -0.8753    1.7790   -6.0498 F   0  0  0  0  0  0  0  0  0  0  0  0
    4.5783   -0.1296   -5.8366 F   0  0  0  0  0  0  0  0  0  0  0  0
    2.2005   -0.4186   -7.2747 F   0  0  0  0  0  0  0  0  0  0  0  0
    3.6496    1.0936   -9.4284 F   0  0  0  0  0  0  0  0  0  0  0  0
    2.8790    2.3545  -11.7049 F   0  0  0  0  0  0  0  0  0  0  0  0
    3.5703   -4.2708   -7.2053 F   0  0  0  0  0  0  0  0  0  0  0  0
    5.9692   -2.9323   -7.0664 F   0  0  0  0  0  0  0  0  0  0  0  0
  1  2  1  0
  1  3  1  0
  2  7  1  0
  2 14  1  0
  2 15  1  0
  3  4  1  0
  3 16  1  0
  3 17  1  0
  4  5  1  0
  4 30  1  0
  4 31  1  0
  5  8  1  0
  5 18  1  0
  5 19  1  0
  6  7  1  0
  6  9  1  0
  6 32  1  0
  6 33  1  0
  7 22  1  0
  7 23  1  0
  8 10  1  0
  8 20  1  0
  8 21  1  0
  9 11  1  0
  9 36  1  0
  9 37  1  0
 10 12  1  0
 10 34  1  0
 10 35  1  0
 11 13  1  0
 11 28  1  0
 11 29  1  0
 12 13  1  0
 12 24  1  0
 12 25  1  0
 13 26  1  0
 13 27  1  0
M  CHG  1   1   1
M  RAD  1   1   2
M  END
$$$$

     RDKit          3D

 37 37  0  0  0  0  0  0  0  0999 V2000
    0.6450    0.6860   -2.8721 S   0  0  0  0  0  2  0  0  0  0  0  0
    0.6462    2.8085   -2.8182 Si  0  0  0  0  0  4  0  0  0  0  0  0
    1.3706   -0.0957   -4.7146 Si  0  0  0  0  0  4  0  0  0  0  0  0
    3.4430    0.6151   -5.1621 Si  0  0  0  0  0  4  0  0  0  0  0  0
    3.5395    1.2409   -7.3023 Si  0  0  0  0  0  4  0  0  0  0  0  0
   -0.3638    3.9992   -6.1603 Si  0  0  0  0  0  4  0  0  0  0  0  0
   -0.9945    3.6928   -4.0344 Si  0  0  0  0  0  4  0  0  0  0  0  0
    4.8123    3.0572   -7.5633 Si  0  0  0  0  0  4  0  0  0  0  0  0
   -1.2330    5.8962   -6.9823 Si  0  0  0  0  0  4  0  0  0  0  0  0
    3.7326    4.5058   -8.8900 Si  0  0  0  0  0  4  0  0  0  0  0  0
    0.2260    6.8565   -8.4114 Si  0  0  0  0  0  4  0  0  0  0  0  0
    3.8966    6.5790   -8.1562 Si  0  0  0  0  0  4  0  0  0  0  0  0
    2.0455    7.3694   -7.2821 Si  0  0  0  0  0  4  0  0  0  0  0  0
    2.1062    3.4752   -3.3096 F   0  0  0  0  0  0  0  0  0  0  0  0
    0.4091    3.2866   -1.1971 F   0  0  0  0  0  0  0  0  0  0  0  0
    0.3455    0.2885   -5.9913 F   0  0  0  0  0  0  0  0  0  0  0  0
    1.4009   -1.7827   -4.5901 F   0  0  0  0  0  0  0  0  0  0  0  0
    4.0785   -0.0414   -8.2460 F   0  0  0  0  0  0  0  0  0  0  0  0
    1.9522    1.5904   -7.8187 F   0  0  0  0  0  0  0  0  0  0  0  0
    6.2644    2.5501   -8.2790 F   0  0  0  0  0  0  0  0  0  0  0  0
    5.1772    3.7680   -6.0706 F   0  0  0  0  0  0  0  0  0  0  0  0
   -1.3481    5.2294   -3.4008 F   0  0  0  0  0  0  0  0  0  0  0  0
   -2.3971    2.7434   -3.9530 F   0  0  0  0  0  0  0  0  0  0  0  0
    4.4160    7.6486   -9.3797 F   0  0  0  0  0  0  0  0  0  0  0  0
    5.1160    6.6188   -6.9626 F   0  0  0  0  0  0  0  0  0  0  0  0
    1.9507    6.8590   -5.6579 F   0  0  0  0  0  0  0  0  0  0  0  0
    2.1650    9.0714   -7.2165 F   0  0  0  0  0  0  0  0  0  0  0  0
    0.5023    5.8501   -9.7149 F   0  0  0  0  0  0  0  0  0  0  0  0
   -0.5610    8.2462   -9.0118 F   0  0  0  0  0  0  0  0  0  0  0  0
    4.5475   -0.6637   -4.9582 F   0  0  0  0  0  0  0  0  0  0  0  0
    3.9024    1.8655   -4.1378 F   0  0  0  0  0  0  0  0  0  0  0  0
   -0.9683    2.7337   -7.1299 F   0  0  0  0  0  0  0  0  0  0  0  0
    1.3222    4.0521   -6.2238 F   0  0  0  0  0  0  0  0  0  0  0  0
    2.1509    4.0009   -9.1109 F   0  0  0  0  0  0  0  0  0  0  0  0
    4.4888    4.4354  -10.4193 F   0  0  0  0  0  0  0  0  0  0  0  0
   -1.5244    6.9424   -5.7103 F   0  0  0  0  0  0  0  0  0  0  0  0
   -2.6477    5.5655   -7.8098 F   0  0  0  0  0  0  0  0  0  0  0  0
  1  2  1  0
  1  3  1  0
  2  7  1  0
  2 14  1  0
  2 15  1  0
  3  4  1  0
  3 16  1  0
  3 17  1  0
  4  5  1  0
  4 30  1  0
  4 31  1  0
  5  8  1  0
  5 18  1  0
  5 19  1  0
  6  7  1  0
  6  9  1  0
  6 32  1  0
  6 33  1  0
  7 22  1  0
  7 23  1  0
  8 10  1  0
  8 20  1  0
  8 21  1  0
  9 11  1  0
  9 36  1  0
  9 37  1  0
 10 12  1  0
 10 34  1  0
 10 35  1  0
 11 13  1  0
 11 28  1  0
 11 29  1  0
 12 13  1  0
 12 24  1  0
 12 25  1  0
 13 26  1  0
 13 27  1  0
M  CHG  1   1   1
M  RAD  1   1   2
M  END
$$$$

     RDKit          3D

 37 37  0  0  0  0  0  0  0  0999 V2000
    0.6450    0.6860   -2.8721 S   0  0  0  0  0  2  0  0  0  0  0  0
    1.9426    2.1856   -3.6916 Si  0  0  0  0  0  4  0  0  0  0  0  0
    0.8374   -1.1619   -3.9240 Si  0  0  0  0  0  4  0  0  0  0  0  0
    0.9948   -0.9060   -6.1116 Si  0  0  0  0  0  4  0  0  0  0  0  0
   -0.6478    0.3680   -6.9262 Si  0  0  0  0  0  4  0  0  0  0  0  0
    0.8995    5.2912   -5.3652 Si  0  0  0  0  0  4  0  0  0  0  0  0
    1.1291    4.2331   -3.3972 Si  0  0  0  0  0  4  0  0  0  0  0  0
   -0.1462    1.0974   -8.9824 Si  0  0  0  0  0  4  0  0  0  0  0  0
    2.7571    6.3444   -5.9472 Si  0  0  0  0  0  4  0  0  0  0  0  0
   -1.1967    2.9826   -9.4388 Si  0  0  0  0  0  4  0  0  0  0  0  0
    3.0539    6.3435   -8.1679 Si  0  0  0  0  0  4  0  0  0  0  0  0
    0.0756    4.7422   -9.6226 Si  0  0  0  0  0  4  0  0  0  0  0  0
    2.1851    4.4664   -9.0683 Si  0  0  0  0  0  4  0  0  0  0  0  0
    2.0042    1.8863   -5.3532 F   0  0  0  0  0  0  0  0  0  0  0  0
    3.4855    2.1077   -3.0023 F   0  0  0  0  0  0  0  0  0  0  0  0
    2.1813   -1.9696   -3.3557 F   0  0  0  0  0  0  0  0  0  0  0  0
   -0.5267   -2.1150   -3.5966 F   0  0  0  0  0  0  0  0  0  0  0  0
   -2.0423   -0.6041   -7.0184 F   0  0  0  0  0  0  0  0  0  0  0  0
   -1.0124    1.6395   -5.8895 F   0  0  0  0  0  0  0  0  0  0  0  0
    1.5198    1.2059   -9.1591 F   0  0  0  0  0  0  0  0  0  0  0  0
   -0.6465   -0.1279  -10.0636 F   0  0  0  0  0  0  0  0  0  0  0  0
   -0.4276    4.0795   -2.7427 F   0  0  0  0  0  0  0  0  0  0  0  0
    2.0906    5.1474   -2.3611 F   0  0  0  0  0  0  0  0  0  0  0  0
   -0.5453    6.0356   -8.6944 F   0  0  0  0  0  0  0  0  0  0  0  0
    0.0352    5.3146  -11.2328 F   0  0  0  0  0  0  0  0  0  0  0  0
    3.0899    4.1454  -10.4677 F   0  0  0  0  0  0  0  0  0  0  0  0
    2.4677    3.2572   -7.9801 F   0  0  0  0  0  0  0  0  0  0  0  0
    2.3952    7.7054   -8.8663 F   0  0  0  0  0  0  0  0  0  0  0  0
    4.7167    6.2781   -8.4464 F   0  0  0  0  0  0  0  0  0  0  0  0
    0.8437   -2.4307   -6.8285 F   0  0  0  0  0  0  0  0  0  0  0  0
    2.4901   -0.2924   -6.5869 F   0  0  0  0  0  0  0  0  0  0  0  0
    0.5672    4.1128   -6.5109 F   0  0  0  0  0  0  0  0  0  0  0  0
   -0.3740    6.3969   -5.2650 F   0  0  0  0  0  0  0  0  0  0  0  0
   -2.1291    2.7761  -10.8564 F   0  0  0  0  0  0  0  0  0  0  0  0
   -2.3488    3.2465   -8.2042 F   0  0  0  0  0  0  0  0  0  0  0  0
    2.6363    7.9587   -5.4585 F   0  0  0  0  0  0  0  0  0  0  0  0
    4.1119    5.6821   -5.1681 F   0  0  0  0  0  0  0  0  0  0  0  0
  1  2  1  0
  1  3  1  0
  2  7  1  0
  2 14  1  0
  2 15  1  0
  3  4  1  0
  3 16  1  0
  3 17  1  0
  4  5  1  0
  4 30  1  0
  4 31  1  0
  5  8  1  0
  5 18  1  0
  5 19  1  0
  6  7  1  0
  6  9  1  0
  6 32  1  0
  6 33  1  0
  7 22  1  0
  7 23  1  0
  8 10  1  0
  8 20  1  0
  8 21  1  0
  9 11  1  0
  9 36  1  0
  9 37  1  0
 10 12  1  0
 10 34  1  0
 10 35  1  0
 11 13  1  0
 11 28  1  0
 11 29  1  0
 12 13  1  0
 12 24  1  0
 12 25  1  0
 13 26  1  0
 13 27  1  0
M  CHG  1   1   1
M  RAD  1   1   2
M  END
$$$$

     RDKit          3D

 37 37  0  0  0  0  0  0  0  0999 V2000
    0.6450    0.6860   -2.8721 S   0  0  0  0  0  2  0  0  0  0  0  0
   -1.0056    1.5968   -3.8487 Si  0  0  0  0  0  4  0  0  0  0  0  0
    2.4119    0.6848   -4.0598 Si  0  0  0  0  0  4  0  0  0  0  0  0
    3.0099    2.7529   -4.6647 Si  0  0  0  0  0  4  0  0  0  0  0  0
    3.5485    2.7383   -6.8307 Si  0  0  0  0  0  4  0  0  0  0  0  0
   -0.8541    0.6326   -7.4061 Si  0  0  0  0  0  4  0  0  0  0  0  0
   -1.8731    0.3050   -5.4400 Si  0  0  0  0  0  4  0  0  0  0  0  0
    2.8521    4.5962   -7.8556 Si  0  0  0  0  0  4  0  0  0  0  0  0
   -2.3275    0.5240   -9.0934 Si  0  0  0  0  0  4  0  0  0  0  0  0
    1.8568    4.0239   -9.7807 Si  0  0  0  0  0  4  0  0  0  0  0  0
   -1.7516    1.9846  -10.7145 Si  0  0  0  0  0  4  0  0  0  0  0  0
    0.0081    5.1747  -10.1293 Si  0  0  0  0  0  4  0  0  0  0  0  0
   -1.8344    4.0133   -9.8620 Si  0  0  0  0  0  4  0  0  0  0  0  0
   -0.6313    3.0939   -4.5088 F   0  0  0  0  0  0  0  0  0  0  0  0
   -2.2176    1.8658   -2.6775 F   0  0  0  0  0  0  0  0  0  0  0  0
    2.2342   -0.2819   -5.4245 F   0  0  0  0  0  0  0  0  0  0  0  0
    3.6618    0.0173   -3.1355 F   0  0  0  0  0  0  0  0  0  0  0  0
    5.2052    2.5124   -7.0031 F   0  0  0  0  0  0  0  0  0  0  0  0
    2.7965    1.3869   -7.5492 F   0  0  0  0  0  0  0  0  0  0  0  0
    4.2245    5.5502   -8.1460 F   0  0  0  0  0  0  0  0  0  0  0  0
    1.7930    5.4774   -6.8715 F   0  0  0  0  0  0  0  0  0  0  0  0
   -3.4994    0.7507   -5.6495 F   0  0  0  0  0  0  0  0  0  0  0  0
   -1.8180   -1.3312   -4.9981 F   0  0  0  0  0  0  0  0  0  0  0  0
   -0.0193    5.8813  -11.6820 F   0  0  0  0  0  0  0  0  0  0  0  0
   -0.0134    6.4799   -9.0297 F   0  0  0  0  0  0  0  0  0  0  0  0
   -2.2258    3.9900   -8.2026 F   0  0  0  0  0  0  0  0  0  0  0  0
   -3.1146    4.8528  -10.6182 F   0  0  0  0  0  0  0  0  0  0  0  0
   -0.2616    1.5806  -11.3509 F   0  0  0  0  0  0  0  0  0  0  0  0
   -2.9000    1.7718  -11.9584 F   0  0  0  0  0  0  0  0  0  0  0  0
    4.3976    3.2273   -3.8011 F   0  0  0  0  0  0  0  0  0  0  0  0
    1.7934    3.8669   -4.3443 F   0  0  0  0  0  0  0  0  0  0  0  0
    0.2834   -0.6075   -7.6805 F   0  0  0  0  0  0  0  0  0  0  0  0
   -0.1018    2.1435   -7.3822 F   0  0  0  0  0  0  0  0  0  0  0  0
    1.6276    2.3654   -9.8286 F   0  0  0  0  0  0  0  0  0  0  0  0
    2.9497    4.4052  -11.0360 F   0  0  0  0  0  0  0  0  0  0  0  0
   -3.8405    0.9261   -8.5047 F   0  0  0  0  0  0  0  0  0  0  0  0
   -2.3383   -1.0157   -9.7449 F   0  0  0  0  0  0  0  0  0  0  0  0
  1  2  1  0
  1  3  1  0
  2  7  1  0
  2 14  1  0
  2 15  1  0
  3  4  1  0
  3 16  1  0
  3 17  1  0
  4  5  1  0
  4 30  1  0
  4 31  1  0
  5  8  1  0
  5 18  1  0
  5 19  1  0
  6  7  1  0
  6  9  1  0
  6 32  1  0
  6 33  1  0
  7 22  1  0
  7 23  1  0
  8 10  1  0
  8 20  1  0
  8 21  1  0
  9 11  1  0
  9 36  1  0
  9 37  1  0
 10 12  1  0
 10 34  1  0
 10 35  1  0
 11 13  1  0
 11 28  1  0
 11 29  1  0
 12 13  1  0
 12 24  1  0
 12 25  1  0
 13 26  1  0
 13 27  1  0
M  CHG  1   1   1
M  RAD  1   1   2
M  END
$$$$

     RDKit          3D

 37 37  0  0  0  0  0  0  0  0999 V2000
    0.6450    0.6860   -2.8721 S   0  0  0  0  0  2  0  0  0  0  0  0
    1.7167   -0.1597   -4.5296 Si  0  0  0  0  0  4  0  0  0  0  0  0
    0.9316    2.8340   -2.8088 Si  0  0  0  0  0  4  0  0  0  0  0  0
    0.3593    3.6872   -4.7688 Si  0  0  0  0  0  4  0  0  0  0  0  0
    2.0853    4.6184   -5.8245 Si  0  0  0  0  0  4  0  0  0  0  0  0
    1.2690   -1.9909   -7.6809 Si  0  0  0  0  0  4  0  0  0  0  0  0
    0.3048   -1.3593   -5.7799 Si  0  0  0  0  0  4  0  0  0  0  0  0
    1.6364    4.7249   -7.9831 Si  0  0  0  0  0  4  0  0  0  0  0  0
    3.4698   -1.6649   -7.6454 Si  0  0  0  0  0  4  0  0  0  0  0  0
    2.3631    2.8993   -9.0772 Si  0  0  0  0  0  4  0  0  0  0  0  0
    4.1601   -0.7502   -9.5564 Si  0  0  0  0  0  4  0  0  0  0  0  0
    4.5466    2.9150   -9.3465 Si  0  0  0  0  0  4  0  0  0  0  0  0
    5.5005    0.9506   -9.1504 Si  0  0  0  0  0  4  0  0  0  0  0  0
    2.9878   -1.1560   -3.9843 F   0  0  0  0  0  0  0  0  0  0  0  0
    2.3664    1.0893   -5.4203 F   0  0  0  0  0  0  0  0  0  0  0  0
    2.4935    3.2129   -2.3633 F   0  0  0  0  0  0  0  0  0  0  0  0
   -0.1029    3.4069   -1.5829 F   0  0  0  0  0  0  0  0  0  0  0  0
    3.5328    3.8524   -5.4829 F   0  0  0  0  0  0  0  0  0  0  0  0
    2.2225    6.2166   -5.2403 F   0  0  0  0  0  0  0  0  0  0  0  0
    2.3355    6.0995   -8.6245 F   0  0  0  0  0  0  0  0  0  0  0  0
   -0.0397    4.8457   -8.1767 F   0  0  0  0  0  0  0  0  0  0  0  0
   -0.2050   -2.7043   -4.8945 F   0  0  0  0  0  0  0  0  0  0  0  0
   -1.0270   -0.3676   -6.1210 F   0  0  0  0  0  0  0  0  0  0  0  0
    4.9385    3.5790  -10.8684 F   0  0  0  0  0  0  0  0  0  0  0  0
    5.2231    3.9718   -8.1980 F   0  0  0  0  0  0  0  0  0  0  0  0
    6.8470    0.8950  -10.1959 F   0  0  0  0  0  0  0  0  0  0  0  0
    6.1237    0.7846   -7.5753 F   0  0  0  0  0  0  0  0  0  0  0  0
    2.8665   -0.3438  -10.5569 F   0  0  0  0  0  0  0  0  0  0  0  0
    5.0551   -1.9402  -10.3923 F   0  0  0  0  0  0  0  0  0  0  0  0
   -0.7909    4.9193   -4.5029 F   0  0  0  0  0  0  0  0  0  0  0  0
   -0.3693    2.5435   -5.7457 F   0  0  0  0  0  0  0  0  0  0  0  0
    0.5795   -1.1715   -9.0036 F   0  0  0  0  0  0  0  0  0  0  0  0
    0.9118   -3.6402   -7.9227 F   0  0  0  0  0  0  0  0  0  0  0  0
    1.6378    2.9649  -10.6224 F   0  0  0  0  0  0  0  0  0  0  0  0
    1.7880    1.5157   -8.3328 F   0  0  0  0  0  0  0  0  0  0  0  0
    3.9439   -0.6762   -6.3671 F   0  0  0  0  0  0  0  0  0  0  0  0
    4.2135   -3.1758   -7.3833 F   0  0  0  0  0  0  0  0  0  0  0  0
  1  2  1  0
  1  3  1  0
  2  7  1  0
  2 14  1  0
  2 15  1  0
  3  4  1  0
  3 16  1  0
  3 17  1  0
  4  5  1  0
  4 30  1  0
  4 31  1  0
  5  8  1  0
  5 18  1  0
  5 19  1  0
  6  7  1  0
  6  9  1  0
  6 32  1  0
  6 33  1  0
  7 22  1  0
  7 23  1  0
  8 10  1  0
  8 20  1  0
  8 21  1  0
  9 11  1  0
  9 36  1  0
  9 37  1  0
 10 12  1  0
 10 34  1  0
 10 35  1  0
 11 13  1  0
 11 28  1  0
 11 29  1  0
 12 13  1  0
 12 24  1  0
 12 25  1  0
 13 26  1  0
 13 27  1  0
M  CHG  1   1   1
M  RAD  1   1   2
M  END
$$$$

     RDKit          3D

 37 37  0  0  0  0  0  0  0  0999 V2000
    0.6450    0.6860   -2.8721 S   0  0  0  0  0  2  0  0  0  0  0  0
    0.0301    2.3659   -4.0427 Si  0  0  0  0  0  4  0  0  0  0  0  0
    1.8697   -0.6648   -3.9533 Si  0  0  0  0  0  4  0  0  0  0  0  0
    0.6437   -2.0518   -5.2373 Si  0  0  0  0  0  4  0  0  0  0  0  0
    1.9288   -2.7903   -6.8709 Si  0  0  0  0  0  4  0  0  0  0  0  0
    1.6502    3.9550   -6.9508 Si  0  0  0  0  0  4  0  0  0  0  0  0
    1.7365    3.5769   -4.7541 Si  0  0  0  0  0  4  0  0  0  0  0  0
    0.8546   -3.4278   -8.6609 Si  0  0  0  0  0  4  0  0  0  0  0  0
    2.1996    2.0863   -8.0849 Si  0  0  0  0  0  4  0  0  0  0  0  0
   -1.0812   -2.4751   -9.0149 Si  0  0  0  0  0  4  0  0  0  0  0  0
    1.5304    2.1894  -10.1884 Si  0  0  0  0  0  4  0  0  0  0  0  0
   -1.0285   -0.3400   -9.4966 Si  0  0  0  0  0  4  0  0  0  0  0  0
    0.5998    0.2522  -10.8514 Si  0  0  0  0  0  4  0  0  0  0  0  0
   -0.9245    1.7966   -5.3182 F   0  0  0  0  0  0  0  0  0  0  0  0
   -1.0067    3.3001   -3.0602 F   0  0  0  0  0  0  0  0  0  0  0  0
    2.7558   -1.5851   -2.8211 F   0  0  0  0  0  0  0  0  0  0  0  0
    3.0192    0.1497   -4.8911 F   0  0  0  0  0  0  0  0  0  0  0  0
    3.1176   -1.6490   -7.3170 F   0  0  0  0  0  0  0  0  0  0  0  0
    2.8080   -4.1209   -6.2551 F   0  0  0  0  0  0  0  0  0  0  0  0
    0.5717   -5.1119   -8.5591 F   0  0  0  0  0  0  0  0  0  0  0  0
    1.8442   -3.2227  -10.0169 F   0  0  0  0  0  0  0  0  0  0  0  0
    3.1719    2.7662   -4.3497 F   0  0  0  0  0  0  0  0  0  0  0  0
    1.6961    5.0914   -3.9798 F   0  0  0  0  0  0  0  0  0  0  0  0
   -2.5091    0.0541  -10.2591 F   0  0  0  0  0  0  0  0  0  0  0  0
   -1.0302    0.5784   -8.0575 F   0  0  0  0  0  0  0  0  0  0  0  0
    1.8160   -0.8697  -10.9958 F   0  0  0  0  0  0  0  0  0  0  0  0
    0.0100    0.5471  -12.4281 F   0  0  0  0  0  0  0  0  0  0  0  0
    0.4929    3.4791  -10.4266 F   0  0  0  0  0  0  0  0  0  0  0  0
    2.8955    2.4321  -11.1768 F   0  0  0  0  0  0  0  0  0  0  0  0
   -0.7605   -1.3272   -5.7571 F   0  0  0  0  0  0  0  0  0  0  0  0
    0.1989   -3.3495   -4.2224 F   0  0  0  0  0  0  0  0  0  0  0  0
    0.0836    4.3668   -7.3757 F   0  0  0  0  0  0  0  0  0  0  0  0
    2.7517    5.1388   -7.3710 F   0  0  0  0  0  0  0  0  0  0  0  0
   -1.8222   -3.2877  -10.3241 F   0  0  0  0  0  0  0  0  0  0  0  0
   -2.1227   -2.7122   -7.6894 F   0  0  0  0  0  0  0  0  0  0  0  0
    1.4022    0.8113   -7.3294 F   0  0  0  0  0  0  0  0  0  0  0  0
    3.8514    1.8109   -8.0007 F   0  0  0  0  0  0  0  0  0  0  0  0
  1  2  1  0
  1  3  1  0
  2  7  1  0
  2 14  1  0
  2 15  1  0
  3  4  1  0
  3 16  1  0
  3 17  1  0
  4  5  1  0
  4 30  1  0
  4 31  1  0
  5  8  1  0
  5 18  1  0
  5 19  1  0
  6  7  1  0
  6  9  1  0
  6 32  1  0
  6 33  1  0
  7 22  1  0
  7 23  1  0
  8 10  1  0
  8 20  1  0
  8 21  1  0
  9 11  1  0
  9 36  1  0
  9 37  1  0
 10 12  1  0
 10 34  1  0
 10 35  1  0
 11 13  1  0
 11 28  1  0
 11 29  1  0
 12 13  1  0
 12 24  1  0
 12 25  1  0
 13 26  1  0
 13 27  1  0
M  CHG  1   1   1
M  RAD  1   1   2
M  END
$$$$

     RDKit          3D

 37 37  0  0  0  0  0  0  0  0999 V2000
    0.6450    0.6860   -2.8721 S   0  0  0  0  0  2  0  0  0  0  0  0
    0.3865   -1.0151   -4.1159 Si  0  0  0  0  0  4  0  0  0  0  0  0
    1.5135    2.3371   -3.8977 Si  0  0  0  0  0  4  0  0  0  0  0  0
    0.2990    2.9462   -5.6738 Si  0  0  0  0  0  4  0  0  0  0  0  0
    1.6734    3.2859   -7.3993 Si  0  0  0  0  0  4  0  0  0  0  0  0
    3.3258   -1.2181   -6.3355 Si  0  0  0  0  0  4  0  0  0  0  0  0
    2.3039   -2.0653   -4.5330 Si  0  0  0  0  0  4  0  0  0  0  0  0
    0.7748    2.5615   -9.3112 Si  0  0  0  0  0  4  0  0  0  0  0  0
    4.3187   -2.8409   -7.5230 Si  0  0  0  0  0  4  0  0  0  0  0  0
    2.3174    1.3777  -10.4261 Si  0  0  0  0  0  4  0  0  0  0  0  0
    4.2005   -2.3660   -9.7261 Si  0  0  0  0  0  4  0  0  0  0  0  0
    1.4709   -0.4558  -11.3122 Si  0  0  0  0  0  4  0  0  0  0  0  0
    2.0740   -2.3040  -10.2947 Si  0  0  0  0  0  4  0  0  0  0  0  0
   -0.3623   -0.6526   -5.5738 F   0  0  0  0  0  0  0  0  0  0  0  0
   -0.6379   -2.1066   -3.2960 F   0  0  0  0  0  0  0  0  0  0  0  0
    3.0927    2.0048   -4.3709 F   0  0  0  0  0  0  0  0  0  0  0  0
    1.5793    3.6428   -2.8238 F   0  0  0  0  0  0  0  0  0  0  0  0
    2.0919    4.9117   -7.4814 F   0  0  0  0  0  0  0  0  0  0  0  0
    3.1158    2.4276   -7.0979 F   0  0  0  0  0  0  0  0  0  0  0  0
    0.3110    3.9329  -10.1955 F   0  0  0  0  0  0  0  0  0  0  0  0
   -0.6061    1.6256   -9.0220 F   0  0  0  0  0  0  0  0  0  0  0  0
    1.9471   -3.6882   -4.8883 F   0  0  0  0  0  0  0  0  0  0  0  0
    3.3302   -2.0247   -3.1838 F   0  0  0  0  0  0  0  0  0  0  0  0
    1.8566   -0.6001  -12.9678 F   0  0  0  0  0  0  0  0  0  0  0  0
   -0.2303   -0.3344  -11.2453 F   0  0  0  0  0  0  0  0  0  0  0  0
    1.0499   -2.5442   -8.9526 F   0  0  0  0  0  0  0  0  0  0  0  0
    1.7676   -3.6188  -11.3401 F   0  0  0  0  0  0  0  0  0  0  0  0
    5.0284   -0.9539  -10.0560 F   0  0  0  0  0  0  0  0  0  0  0  0
    5.0322   -3.6286  -10.5169 F   0  0  0  0  0  0  0  0  0  0  0  0
   -0.4880    4.4213   -5.3554 F   0  0  0  0  0  0  0  0  0  0  0  0
   -0.8744    1.8012   -6.0425 F   0  0  0  0  0  0  0  0  0  0  0  0
    4.5642   -0.1518   -5.8491 F   0  0  0  0  0  0  0  0  0  0  0  0
    2.1806   -0.4170   -7.2821 F   0  0  0  0  0  0  0  0  0  0  0  0
    3.6364    1.0903   -9.4346 F   0  0  0  0  0  0  0  0  0  0  0  0
    2.8702    2.3646  -11.7052 F   0  0  0  0  0  0  0  0  0  0  0  0
    3.5195   -4.2803   -7.2283 F   0  0  0  0  0  0  0  0  0  0  0  0
    5.9295   -2.9616   -7.0913 F   0  0  0  0  0  0  0  0  0  0  0  0
  1  2  1  0
  1  3  1  0
  2  7  1  0
  2 14  1  0
  2 15  1  0
  3  4  1  0
  3 16  1  0
  3 17  1  0
  4  5  1  0
  4 30  1  0
  4 31  1  0
  5  8  1  0
  5 18  1  0
  5 19  1  0
  6  7  1  0
  6  9  1  0
  6 32  1  0
  6 33  1  0
  7 22  1  0
  7 23  1  0
  8 10  1  0
  8 20  1  0
  8 21  1  0
  9 11  1  0
  9 36  1  0
  9 37  1  0
 10 12  1  0
 10 34  1  0
 10 35  1  0
 11 13  1  0
 11 28  1  0
 11 29  1  0
 12 13  1  0
 12 24  1  0
 12 25  1  0
 13 26  1  0
 13 27  1  0
M  CHG  1   1   1
M  RAD  1   1   2
M  END
$$$$

     RDKit          3D

 37 37  0  0  0  0  0  0  0  0999 V2000
    0.6450    0.6860   -2.8721 S   0  0  0  0  0  2  0  0  0  0  0  0
    1.4828    2.4244   -3.8142 Si  0  0  0  0  0  4  0  0  0  0  0  0
   -0.2594   -0.6107   -4.3555 Si  0  0  0  0  0  4  0  0  0  0  0  0
    1.2473   -1.0771   -5.9077 Si  0  0  0  0  0  4  0  0  0  0  0  0
    0.6835   -0.2706   -7.9058 Si  0  0  0  0  0  4  0  0  0  0  0  0
    4.6431    4.1948   -4.4161 Si  0  0  0  0  0  4  0  0  0  0  0  0
    3.6308    2.6134   -3.2259 Si  0  0  0  0  0  4  0  0  0  0  0  0
    2.4995   -0.0889   -9.1473 Si  0  0  0  0  0  4  0  0  0  0  0  0
    3.1879    5.4564   -5.5306 Si  0  0  0  0  0  4  0  0  0  0  0  0
    3.4453    1.9419   -8.9494 Si  0  0  0  0  0  4  0  0  0  0  0  0
    3.8790    5.7926   -7.6222 Si  0  0  0  0  0  4  0  0  0  0  0  0
    2.3228    3.4840  -10.0461 Si  0  0  0  0  0  4  0  0  0  0  0  0
    2.2319    5.4298   -9.0398 Si  0  0  0  0  0  4  0  0  0  0  0  0
    0.6364    3.8304   -3.3533 F   0  0  0  0  0  0  0  0  0  0  0  0
    1.3448    2.2389   -5.4640 F   0  0  0  0  0  0  0  0  0  0  0  0
   -1.6468    0.0744   -4.9779 F   0  0  0  0  0  0  0  0  0  0  0  0
   -0.7166   -2.0246   -3.5228 F   0  0  0  0  0  0  0  0  0  0  0  0
   -0.1936    1.1500   -7.7979 F   0  0  0  0  0  0  0  0  0  0  0  0
   -0.3369   -1.4263   -8.6391 F   0  0  0  0  0  0  0  0  0  0  0  0
    2.1092   -0.3917  -10.7428 F   0  0  0  0  0  0  0  0  0  0  0  0
    3.6118   -1.2600   -8.6446 F   0  0  0  0  0  0  0  0  0  0  0  0
    3.7191    2.9611   -1.5754 F   0  0  0  0  0  0  0  0  0  0  0  0
    4.3658    1.1163   -3.5295 F   0  0  0  0  0  0  0  0  0  0  0  0
    2.9887    3.6888  -11.6034 F   0  0  0  0  0  0  0  0  0  0  0  0
    0.7376    2.9199  -10.2965 F   0  0  0  0  0  0  0  0  0  0  0  0
    2.2041    6.6536  -10.2276 F   0  0  0  0  0  0  0  0  0  0  0  0
    0.7569    5.5586   -8.2004 F   0  0  0  0  0  0  0  0  0  0  0  0
    5.2603    4.8943   -7.9751 F   0  0  0  0  0  0  0  0  0  0  0  0
    4.3316    7.4344   -7.7474 F   0  0  0  0  0  0  0  0  0  0  0  0
    1.3519   -2.7733   -6.0620 F   0  0  0  0  0  0  0  0  0  0  0  0
    2.7659   -0.5332   -5.4705 F   0  0  0  0  0  0  0  0  0  0  0  0
    5.7647    3.5068   -5.4955 F   0  0  0  0  0  0  0  0  0  0  0  0
    5.5615    5.1474   -3.3414 F   0  0  0  0  0  0  0  0  0  0  0  0
    4.9920    1.8049   -9.6616 F   0  0  0  0  0  0  0  0  0  0  0  0
    3.6884    2.3084   -7.3352 F   0  0  0  0  0  0  0  0  0  0  0  0
    1.6514    4.7680   -5.5697 F   0  0  0  0  0  0  0  0  0  0  0  0
    3.0306    6.9311   -4.6907 F   0  0  0  0  0  0  0  0  0  0  0  0
  1  2  1  0
  1  3  1  0
  2  7  1  0
  2 14  1  0
  2 15  1  0
  3  4  1  0
  3 16  1  0
  3 17  1  0
  4  5  1  0
  4 30  1  0
  4 31  1  0
  5  8  1  0
  5 18  1  0
  5 19  1  0
  6  7  1  0
  6  9  1  0
  6 32  1  0
  6 33  1  0
  7 22  1  0
  7 23  1  0
  8 10  1  0
  8 20  1  0
  8 21  1  0
  9 11  1  0
  9 36  1  0
  9 37  1  0
 10 12  1  0
 10 34  1  0
 10 35  1  0
 11 13  1  0
 11 28  1  0
 11 29  1  0
 12 13  1  0
 12 24  1  0
 12 25  1  0
 13 26  1  0
 13 27  1  0
M  CHG  1   1   1
M  RAD  1   1   2
M  END
$$$$

     RDKit          3D

 37 37  0  0  0  0  0  0  0  0999 V2000
    0.6450    0.6860   -2.8721 S   0  0  0  0  0  2  0  0  0  0  0  0
    0.7446    2.6685   -3.6662 Si  0  0  0  0  0  4  0  0  0  0  0  0
    1.0174   -0.8041   -4.3331 Si  0  0  0  0  0  4  0  0  0  0  0  0
   -0.8202   -1.2406   -5.5612 Si  0  0  0  0  0  4  0  0  0  0  0  0
   -0.1711   -2.1035   -7.4847 Si  0  0  0  0  0  4  0  0  0  0  0  0
    2.6184    3.9753   -6.5625 Si  0  0  0  0  0  4  0  0  0  0  0  0
    2.7363    3.1546   -4.4916 Si  0  0  0  0  0  4  0  0  0  0  0  0
   -1.5846   -1.8403   -9.1270 Si  0  0  0  0  0  4  0  0  0  0  0  0
    2.1529    2.3274   -8.0280 Si  0  0  0  0  0  4  0  0  0  0  0  0
   -2.9060   -0.1036   -8.9936 Si  0  0  0  0  0  4  0  0  0  0  0  0
    1.4027    3.1349   -9.9433 Si  0  0  0  0  0  4  0  0  0  0  0  0
   -1.9422    1.8541   -9.1712 Si  0  0  0  0  0  4  0  0  0  0  0  0
   -0.3612    1.9604  -10.6966 Si  0  0  0  0  0  4  0  0  0  0  0  0
   -0.4822    2.8351   -4.8191 F   0  0  0  0  0  0  0  0  0  0  0  0
    0.3413    3.7316   -2.3935 F   0  0  0  0  0  0  0  0  0  0  0  0
    1.4974   -2.2248   -3.5175 F   0  0  0  0  0  0  0  0  0  0  0  0
    2.3142   -0.3835   -5.3359 F   0  0  0  0  0  0  0  0  0  0  0  0
    1.3555   -1.5126   -7.9696 F   0  0  0  0  0  0  0  0  0  0  0  0
    0.0678   -3.7768   -7.2286 F   0  0  0  0  0  0  0  0  0  0  0  0
   -2.5858   -3.2247   -9.2149 F   0  0  0  0  0  0  0  0  0  0  0  0
   -0.7450   -1.8029  -10.5946 F   0  0  0  0  0  0  0  0  0  0  0  0
    3.6828    1.7459   -4.4670 F   0  0  0  0  0  0  0  0  0  0  0  0
    3.4587    4.3475   -3.5169 F   0  0  0  0  0  0  0  0  0  0  0  0
   -3.1514    2.9886   -9.5953 F   0  0  0  0  0  0  0  0  0  0  0  0
   -1.3903    2.3688   -7.6399 F   0  0  0  0  0  0  0  0  0  0  0  0
    0.1974    0.4834  -11.2114 F   0  0  0  0  0  0  0  0  0  0  0  0
   -0.9036    2.7950  -12.0859 F   0  0  0  0  0  0  0  0  0  0  0  0
    1.0413    4.7622   -9.8091 F   0  0  0  0  0  0  0  0  0  0  0  0
    2.6278    2.9701  -11.1142 F   0  0  0  0  0  0  0  0  0  0  0  0
   -1.7890    0.1028   -5.7158 F   0  0  0  0  0  0  0  0  0  0  0  0
   -1.7024   -2.4028   -4.6767 F   0  0  0  0  0  0  0  0  0  0  0  0
    1.3734    5.0927   -6.6399 F   0  0  0  0  0  0  0  0  0  0  0  0
    4.0892    4.6355   -7.0006 F   0  0  0  0  0  0  0  0  0  0  0  0
   -4.0566   -0.2354  -10.2516 F   0  0  0  0  0  0  0  0  0  0  0  0
   -3.8091   -0.1409   -7.5510 F   0  0  0  0  0  0  0  0  0  0  0  0
    0.9429    1.3885   -7.3302 F   0  0  0  0  0  0  0  0  0  0  0  0
    3.5021    1.3639   -8.2783 F   0  0  0  0  0  0  0  0  0  0  0  0
  1  2  1  0
  1  3  1  0
  2  7  1  0
  2 14  1  0
  2 15  1  0
  3  4  1  0
  3 16  1  0
  3 17  1  0
  4  5  1  0
  4 30  1  0
  4 31  1  0
  5  8  1  0
  5 18  1  0
  5 19  1  0
  6  7  1  0
  6  9  1  0
  6 32  1  0
  6 33  1  0
  7 22  1  0
  7 23  1  0
  8 10  1  0
  8 20  1  0
  8 21  1  0
  9 11  1  0
  9 36  1  0
  9 37  1  0
 10 12  1  0
 10 34  1  0
 10 35  1  0
 11 13  1  0
 11 28  1  0
 11 29  1  0
 12 13  1  0
 12 24  1  0
 12 25  1  0
 13 26  1  0
 13 27  1  0
M  CHG  1   1   1
M  RAD  1   1   2
M  END
$$$$
