
     RDKit          3D

 37 37  0  0  0  0  0  0  0  0999 V2000
    0.0336    0.1805   -4.2618 S   0  0  0  0  0  2  0  0  0  0  0  0
   -1.6871   -0.9344   -4.9845 Si  0  0  0  0  0  4  0  0  0  0  0  0
    0.5332    1.7488   -5.5900 Si  0  0  0  0  0  4  0  0  0  0  0  0
    2.6917    1.8308   -6.0963 Si  0  0  0  0  0  4  0  0  0  0  0  0
    2.8678    2.3348   -8.2416 Si  0  0  0  0  0  4  0  0  0  0  0  0
   -2.3589   -3.4976   -7.5683 Si  0  0  0  0  0  4  0  0  0  0  0  0
   -1.0387   -1.8695   -6.8802 Si  0  0  0  0  0  4  0  0  0  0  0  0
    4.7453    1.6411   -9.1699 Si  0  0  0  0  0  4  0  0  0  0  0  0
   -1.5141   -4.2905   -9.4946 Si  0  0  0  0  0  4  0  0  0  0  0  0
    4.5494   -0.3880  -10.0779 Si  0  0  0  0  0  4  0  0  0  0  0  0
    0.6934   -4.4291   -9.4311 Si  0  0  0  0  0  4  0  0  0  0  0  0
    3.0158   -1.6035   -9.0245 Si  0  0  0  0  0  4  0  0  0  0  0  0
    1.6681   -2.6685  -10.4174 Si  0  0  0  0  0  4  0  0  0  0  0  0
   -2.1300   -2.0729   -3.8361 F   0  0  0  0  0  0  0  0  0  0  0  0
   -2.9700    0.1168   -5.2883 F   0  0  0  0  0  0  0  0  0  0  0  0
    0.0493    3.2205   -4.8747 F   0  0  0  0  0  0  0  0  0  0  0  0
   -0.4297    1.5862   -6.9880 F   0  0  0  0  0  0  0  0  0  0  0  0
    2.8163    4.0352   -8.3829 F   0  0  0  0  0  0  0  0  0  0  0  0
    1.5298    1.7650   -9.1299 F   0  0  0  0  0  0  0  0  0  0  0  0
    5.1168    2.7114  -10.4426 F   0  0  0  0  0  0  0  0  0  0  0  0
    6.0101    1.7215   -8.0766 F   0  0  0  0  0  0  0  0  0  0  0  0
    0.4900   -2.5608   -6.5642 F   0  0  0  0  0  0  0  0  0  0  0  0
   -0.9360   -0.6936   -8.0714 F   0  0  0  0  0  0  0  0  0  0  0  0
    3.7199   -2.6690   -7.9216 F   0  0  0  0  0  0  0  0  0  0  0  0
    2.0653   -0.5245   -8.1099 F   0  0  0  0  0  0  0  0  0  0  0  0
    0.4186   -1.6121  -10.8897 F   0  0  0  0  0  0  0  0  0  0  0  0
    2.4909   -3.1245  -11.8111 F   0  0  0  0  0  0  0  0  0  0  0  0
    1.1579   -5.8094  -10.2918 F   0  0  0  0  0  0  0  0  0  0  0  0
    1.2758   -4.6289   -7.8565 F   0  0  0  0  0  0  0  0  0  0  0  0
    3.5164    0.4441   -5.6697 F   0  0  0  0  0  0  0  0  0  0  0  0
    3.3909    3.1091   -5.2049 F   0  0  0  0  0  0  0  0  0  0  0  0
   -2.4961   -4.7272   -6.4493 F   0  0  0  0  0  0  0  0  0  0  0  0
   -3.9048   -2.8913   -7.9311 F   0  0  0  0  0  0  0  0  0  0  0  0
    4.2206   -0.2980  -11.7262 F   0  0  0  0  0  0  0  0  0  0  0  0
    6.0388   -1.1723   -9.8997 F   0  0  0  0  0  0  0  0  0  0  0  0
   -1.9778   -3.3267  -10.7967 F   0  0  0  0  0  0  0  0  0  0  0  0
   -2.2219   -5.8192   -9.7378 F   0  0  0  0  0  0  0  0  0  0  0  0
  1  2  1  0
  1  3  1  0
  2  7  1  0
  2 14  1  0
  2 15  1  0
  3  4  1  0
  3 16  1  0
  3 17  1  0
  4  5  1  0
  4 30  1  0
  4 31  1  0
  5  8  1  0
  5 18  1  0
  5 19  1  0
  6  7  1  0
  6  9  1  0
  6 32  1  0
  6 33  1  0
  7 22  1  0
  7 23  1  0
  8 10  1  0
  8 20  1  0
  8 21  1  0
  9 11  1  0
  9 36  1  0
  9 37  1  0
 10 12  1  0
 10 34  1  0
 10 35  1  0
 11 13  1  0
 11 28  1  0
 11 29  1  0
 12 13  1  0
 12 24  1  0
 12 25  1  0
 13 26  1  0
 13 27  1  0
M  CHG  1   1   1
M  RAD  1   1   2
M  END
$$$$

     RDKit          3D

 37 37  0  0  0  0  0  0  0  0999 V2000
    0.0336    0.1805   -4.2618 S   0  0  0  0  0  2  0  0  0  0  0  0
   -1.7894   -0.7591   -4.9827 Si  0  0  0  0  0  4  0  0  0  0  0  0
    0.6791    1.6983   -5.5859 Si  0  0  0  0  0  4  0  0  0  0  0  0
    2.8338    1.5723   -6.0993 Si  0  0  0  0  0  4  0  0  0  0  0  0
    3.0514    2.0654   -8.2433 Si  0  0  0  0  0  4  0  0  0  0  0  0
   -2.7149   -3.2345   -7.5737 Si  0  0  0  0  0  4  0  0  0  0  0  0
   -1.2407   -1.7451   -6.8841 Si  0  0  0  0  0  4  0  0  0  0  0  0
    4.8498    1.1965   -9.1807 Si  0  0  0  0  0  4  0  0  0  0  0  0
   -1.9570   -4.0979   -9.5058 Si  0  0  0  0  0  4  0  0  0  0  0  0
    4.4550   -0.8003  -10.0955 Si  0  0  0  0  0  4  0  0  0  0  0  0
    0.2268   -4.4505   -9.4504 Si  0  0  0  0  0  4  0  0  0  0  0  0
    2.8138   -1.8654   -9.0414 Si  0  0  0  0  0  4  0  0  0  0  0  0
    1.3648   -2.7888  -10.4336 Si  0  0  0  0  0  4  0  0  0  0  0  0
   -2.3373   -1.8539   -3.8371 F   0  0  0  0  0  0  0  0  0  0  0  0
   -2.9651    0.4129   -5.2781 F   0  0  0  0  0  0  0  0  0  0  0  0
    0.3426    3.2071   -4.8634 F   0  0  0  0  0  0  0  0  0  0  0  0
   -0.2993    1.6356   -6.9811 F   0  0  0  0  0  0  0  0  0  0  0  0
    3.1648    3.7633   -8.3781 F   0  0  0  0  0  0  0  0  0  0  0  0
    1.6616    1.6319   -9.1291 F   0  0  0  0  0  0  0  0  0  0  0  0
    5.3196    2.2308  -10.4506 F   0  0  0  0  0  0  0  0  0  0  0  0
    6.1197    1.1492   -8.0914 F   0  0  0  0  0  0  0  0  0  0  0  0
    0.2145   -2.5828   -6.5760 F   0  0  0  0  0  0  0  0  0  0  0  0
   -1.0280   -0.5799   -8.0713 F   0  0  0  0  0  0  0  0  0  0  0  0
    3.4145   -2.9987   -7.9448 F   0  0  0  0  0  0  0  0  0  0  0  0
    1.9754   -0.7029   -8.1195 F   0  0  0  0  0  0  0  0  0  0  0  0
    0.2224   -1.6143  -10.8976 F   0  0  0  0  0  0  0  0  0  0  0  0
    2.1352   -3.3170  -11.8317 F   0  0  0  0  0  0  0  0  0  0  0  0
    0.5524   -5.8659  -10.3179 F   0  0  0  0  0  0  0  0  0  0  0  0
    0.7918   -4.7123   -7.8786 F   0  0  0  0  0  0  0  0  0  0  0  0
    3.5212    0.1103   -5.6807 F   0  0  0  0  0  0  0  0  0  0  0  0
    3.6566    2.7731   -5.2056 F   0  0  0  0  0  0  0  0  0  0  0  0
   -2.9675   -4.4495   -6.4588 F   0  0  0  0  0  0  0  0  0  0  0  0
   -4.1957   -2.4795   -7.9289 F   0  0  0  0  0  0  0  0  0  0  0  0
    4.1315   -0.6722  -11.7423 F   0  0  0  0  0  0  0  0  0  0  0  0
    5.8617   -1.7263   -9.9254 F   0  0  0  0  0  0  0  0  0  0  0  0
   -2.3289   -3.0884  -10.8028 F   0  0  0  0  0  0  0  0  0  0  0  0
   -2.8107   -5.5497   -9.7522 F   0  0  0  0  0  0  0  0  0  0  0  0
  1  2  1  0
  1  3  1  0
  2  7  1  0
  2 14  1  0
  2 15  1  0
  3  4  1  0
  3 16  1  0
  3 17  1  0
  4  5  1  0
  4 30  1  0
  4 31  1  0
  5  8  1  0
  5 18  1  0
  5 19  1  0
  6  7  1  0
  6  9  1  0
  6 32  1  0
  6 33  1  0
  7 22  1  0
  7 23  1  0
  8 10  1  0
  8 20  1  0
  8 21  1  0
  9 11  1  0
  9 36  1  0
  9 37  1  0
 10 12  1  0
 10 34  1  0
 10 35  1  0
 11 13  1  0
 11 28  1  0
 11 29  1  0
 12 13  1  0
 12 24  1  0
 12 25  1  0
 13 26  1  0
 13 27  1  0
M  CHG  1   1   1
M  RAD  1   1   2
M  END
$$$$
