
     RDKit          3D

 37 37  0  0  0  0  0  0  0  0999 V2000
    0.9751    0.2967    1.9138 S   0  0  0  0  0  2  0  0  0  0  0  0
   -0.7377   -0.4171    3.0395 Si  0  0  0  0  0  4  0  0  0  0  0  0
    2.5129   -1.2305    2.0523 Si  0  0  0  0  0  4  0  0  0  0  0  0
    2.6653   -1.8336    4.1549 Si  0  0  0  0  0  4  0  0  0  0  0  0
    4.6080   -1.7112    5.0910 Si  0  0  0  0  0  4  0  0  0  0  0  0
    0.5460    2.4382    4.9229 Si  0  0  0  0  0  4  0  0  0  0  0  0
   -1.0796    0.9051    4.8362 Si  0  0  0  0  0  4  0  0  0  0  0  0
    6.0629   -0.2497    4.4818 Si  0  0  0  0  0  4  0  0  0  0  0  0
    1.0644    3.0865    6.9401 Si  0  0  0  0  0  4  0  0  0  0  0  0
    5.5319    1.7886    3.9916 Si  0  0  0  0  0  4  0  0  0  0  0  0
    2.4896    1.8148    8.0205 Si  0  0  0  0  0  4  0  0  0  0  0  0
    4.9740    3.1479    5.6088 Si  0  0  0  0  0  4  0  0  0  0  0  0
    4.6240    2.2596    7.5725 Si  0  0  0  0  0  4  0  0  0  0  0  0
   -0.4701   -1.9795    3.6140 F   0  0  0  0  0  0  0  0  0  0  0  0
   -2.1056   -0.4590    2.0715 F   0  0  0  0  0  0  0  0  0  0  0  0
    3.9468   -0.7227    1.3712 F   0  0  0  0  0  0  0  0  0  0  0  0
    1.9411   -2.4967    1.0498 F   0  0  0  0  0  0  0  0  0  0  0  0
    5.3647   -3.2533    4.9209 F   0  0  0  0  0  0  0  0  0  0  0  0
    4.3749   -1.6248    6.7892 F   0  0  0  0  0  0  0  0  0  0  0  0
    6.9124   -0.8893    3.1270 F   0  0  0  0  0  0  0  0  0  0  0  0
    7.2758   -0.1803    5.6973 F   0  0  0  0  0  0  0  0  0  0  0  0
   -1.0591    0.0178    6.2534 F   0  0  0  0  0  0  0  0  0  0  0  0
   -2.5841    1.6595    4.7079 F   0  0  0  0  0  0  0  0  0  0  0  0
    6.1204    4.4151    5.7904 F   0  0  0  0  0  0  0  0  0  0  0  0
    3.5540    3.9952    5.1567 F   0  0  0  0  0  0  0  0  0  0  0  0
    5.6077    0.8876    7.8260 F   0  0  0  0  0  0  0  0  0  0  0  0
    5.1409    3.3571    8.7845 F   0  0  0  0  0  0  0  0  0  0  0  0
    2.1984    2.0621    9.6926 F   0  0  0  0  0  0  0  0  0  0  0  0
    2.1898    0.1570    7.7980 F   0  0  0  0  0  0  0  0  0  0  0  0
    2.1030   -3.4578    4.2515 F   0  0  0  0  0  0  0  0  0  0  0  0
    1.5262   -1.0060    5.1311 F   0  0  0  0  0  0  0  0  0  0  0  0
    1.8404    1.7940    4.1019 F   0  0  0  0  0  0  0  0  0  0  0  0
    0.0016    3.7881    4.0303 F   0  0  0  0  0  0  0  0  0  0  0  0
    4.4409    1.9149    2.6795 F   0  0  0  0  0  0  0  0  0  0  0  0
    6.9604    2.4462    3.2670 F   0  0  0  0  0  0  0  0  0  0  0  0
    1.7075    4.6650    6.8657 F   0  0  0  0  0  0  0  0  0  0  0  0
   -0.3660    3.2260    7.8614 F   0  0  0  0  0  0  0  0  0  0  0  0
  1  2  1  0
  1  3  1  0
  2  7  1  0
  2 14  1  0
  2 15  1  0
  3  4  1  0
  3 16  1  0
  3 17  1  0
  4  5  1  0
  4 30  1  0
  4 31  1  0
  5  8  1  0
  5 18  1  0
  5 19  1  0
  6  7  1  0
  6  9  1  0
  6 32  1  0
  6 33  1  0
  7 22  1  0
  7 23  1  0
  8 10  1  0
  8 20  1  0
  8 21  1  0
  9 11  1  0
  9 36  1  0
  9 37  1  0
 10 12  1  0
 10 34  1  0
 10 35  1  0
 11 13  1  0
 11 28  1  0
 11 29  1  0
 12 13  1  0
 12 24  1  0
 12 25  1  0
 13 26  1  0
 13 27  1  0
M  CHG  1   1   1
M  RAD  1   1   2
M  END
$$$$

     RDKit          3D

 37 37  0  0  0  0  0  0  0  0999 V2000
    0.9751    0.2967    1.9138 S   0  0  0  0  0  2  0  0  0  0  0  0
   -0.7235    1.3225    2.7947 Si  0  0  0  0  0  4  0  0  0  0  0  0
    1.6541   -1.2375    3.2202 Si  0  0  0  0  0  4  0  0  0  0  0  0
    3.5931   -0.7598    4.1757 Si  0  0  0  0  0  4  0  0  0  0  0  0
    3.8136   -2.0874    5.9693 Si  0  0  0  0  0  4  0  0  0  0  0  0
   -1.5578    2.9945    5.9790 Si  0  0  0  0  0  4  0  0  0  0  0  0
    0.0699    2.2463    4.6946 Si  0  0  0  0  0  4  0  0  0  0  0  0
    4.5736   -0.9707    7.7255 Si  0  0  0  0  0  4  0  0  0  0  0  0
   -1.6695    1.9729    7.9340 Si  0  0  0  0  0  4  0  0  0  0  0  0
    2.8866   -0.1828    8.9795 Si  0  0  0  0  0  4  0  0  0  0  0  0
   -0.3392    2.8150    9.4667 Si  0  0  0  0  0  4  0  0  0  0  0  0
    3.2340    1.9086    9.5941 Si  0  0  0  0  0  4  0  0  0  0  0  0
    1.6811    3.2963    8.7645 Si  0  0  0  0  0  4  0  0  0  0  0  0
   -1.9525    0.2429    3.1472 F   0  0  0  0  0  0  0  0  0  0  0  0
   -1.2211    2.5413    1.7545 F   0  0  0  0  0  0  0  0  0  0  0  0
    0.5214   -1.5604    4.4354 F   0  0  0  0  0  0  0  0  0  0  0  0
    1.8405   -2.6935    2.3503 F   0  0  0  0  0  0  0  0  0  0  0  0
    4.8280   -3.3928    5.5773 F   0  0  0  0  0  0  0  0  0  0  0  0
    2.3178   -2.7678    6.3995 F   0  0  0  0  0  0  0  0  0  0  0  0
    5.4500   -2.0560    8.6935 F   0  0  0  0  0  0  0  0  0  0  0  0
    5.6350    0.2629    7.2923 F   0  0  0  0  0  0  0  0  0  0  0  0
    1.1277    3.4777    4.2008 F   0  0  0  0  0  0  0  0  0  0  0  0
    0.9030    0.9962    5.4646 F   0  0  0  0  0  0  0  0  0  0  0  0
    4.7255    2.4078    8.9547 F   0  0  0  0  0  0  0  0  0  0  0  0
    3.3130    2.0776   11.2619 F   0  0  0  0  0  0  0  0  0  0  0  0
    1.8458    3.3212    7.1095 F   0  0  0  0  0  0  0  0  0  0  0  0
    2.0965    4.8509    9.3375 F   0  0  0  0  0  0  0  0  0  0  0  0
   -1.0978    4.1866   10.1408 F   0  0  0  0  0  0  0  0  0  0  0  0
   -0.2154    1.6908   10.7440 F   0  0  0  0  0  0  0  0  0  0  0  0
    3.7612    0.8506    4.5647 F   0  0  0  0  0  0  0  0  0  0  0  0
    4.8384   -1.1465    3.0784 F   0  0  0  0  0  0  0  0  0  0  0  0
   -3.0356    2.7211    5.1679 F   0  0  0  0  0  0  0  0  0  0  0  0
   -1.4639    4.6859    6.1856 F   0  0  0  0  0  0  0  0  0  0  0  0
    2.6864   -1.1465   10.3740 F   0  0  0  0  0  0  0  0  0  0  0  0
    1.4740   -0.3672    8.0754 F   0  0  0  0  0  0  0  0  0  0  0  0
   -1.4220    0.3127    7.6864 F   0  0  0  0  0  0  0  0  0  0  0  0
   -3.2730    2.1244    8.5039 F   0  0  0  0  0  0  0  0  0  0  0  0
  1  2  1  0
  1  3  1  0
  2  7  1  0
  2 14  1  0
  2 15  1  0
  3  4  1  0
  3 16  1  0
  3 17  1  0
  4  5  1  0
  4 30  1  0
  4 31  1  0
  5  8  1  0
  5 18  1  0
  5 19  1  0
  6  7  1  0
  6  9  1  0
  6 32  1  0
  6 33  1  0
  7 22  1  0
  7 23  1  0
  8 10  1  0
  8 20  1  0
  8 21  1  0
  9 11  1  0
  9 36  1  0
  9 37  1  0
 10 12  1  0
 10 34  1  0
 10 35  1  0
 11 13  1  0
 11 28  1  0
 11 29  1  0
 12 13  1  0
 12 24  1  0
 12 25  1  0
 13 26  1  0
 13 27  1  0
M  CHG  1   1   1
M  RAD  1   1   2
M  END
$$$$

     RDKit          3D

 37 37  0  0  0  0  0  0  0  0999 V2000
    0.9751    0.2967    1.9138 S   0  0  0  0  0  2  0  0  0  0  0  0
   -0.6561   -0.5910    3.0369 Si  0  0  0  0  0  4  0  0  0  0  0  0
    2.6250   -1.1148    1.9586 Si  0  0  0  0  0  4  0  0  0  0  0  0
    2.8653   -1.7929    4.0299 Si  0  0  0  0  0  4  0  0  0  0  0  0
    4.8124   -1.5642    4.9364 Si  0  0  0  0  0  4  0  0  0  0  0  0
    0.4498    2.2708    5.0206 Si  0  0  0  0  0  4  0  0  0  0  0  0
   -1.0584    0.6245    4.8953 Si  0  0  0  0  0  4  0  0  0  0  0  0
    6.1414    0.0273    4.3665 Si  0  0  0  0  0  4  0  0  0  0  0  0
    0.9601    2.8705    7.0548 Si  0  0  0  0  0  4  0  0  0  0  0  0
    5.4500    2.0386    3.9751 Si  0  0  0  0  0  4  0  0  0  0  0  0
    2.4981    1.6653    8.0537 Si  0  0  0  0  0  4  0  0  0  0  0  0
    4.8259    3.2824    5.6596 Si  0  0  0  0  0  4  0  0  0  0  0  0
    4.5836    2.2881    7.5883 Si  0  0  0  0  0  4  0  0  0  0  0  0
   -0.2609   -2.1517    3.5379 F   0  0  0  0  0  0  0  0  0  0  0  0
   -2.0368   -0.6950    2.0920 F   0  0  0  0  0  0  0  0  0  0  0  0
    4.0026   -0.4720    1.2755 F   0  0  0  0  0  0  0  0  0  0  0  0
    2.1286   -2.3770    0.9119 F   0  0  0  0  0  0  0  0  0  0  0  0
    5.6782   -3.0363    4.6860 F   0  0  0  0  0  0  0  0  0  0  0  0
    4.6086   -1.5675    6.6406 F   0  0  0  0  0  0  0  0  0  0  0  0
    7.0081   -0.4887    2.9704 F   0  0  0  0  0  0  0  0  0  0  0  0
    7.3706    0.1364    5.5624 F   0  0  0  0  0  0  0  0  0  0  0  0
   -0.9425   -0.3178    6.2719 F   0  0  0  0  0  0  0  0  0  0  0  0
   -2.6173    1.2682    4.8264 F   0  0  0  0  0  0  0  0  0  0  0  0
    5.8781    4.6236    5.8763 F   0  0  0  0  0  0  0  0  0  0  0  0
    3.3376    4.0387    5.2697 F   0  0  0  0  0  0  0  0  0  0  0  0
    5.6719    0.9847    7.7645 F   0  0  0  0  0  0  0  0  0  0  0  0
    5.0422    3.3693    8.8379 F   0  0  0  0  0  0  0  0  0  0  0  0
    2.2238    1.8191    9.7398 F   0  0  0  0  0  0  0  0  0  0  0  0
    2.3181    0.0005    7.7642 F   0  0  0  0  0  0  0  0  0  0  0  0
    2.4277   -3.4575    4.0653 F   0  0  0  0  0  0  0  0  0  0  0  0
    1.6881   -1.0955    5.0610 F   0  0  0  0  0  0  0  0  0  0  0  0
    1.7715    1.7612    4.1498 F   0  0  0  0  0  0  0  0  0  0  0  0
   -0.2120    3.6123    4.1974 F   0  0  0  0  0  0  0  0  0  0  0  0
    4.3257    2.1376    2.6889 F   0  0  0  0  0  0  0  0  0  0  0  0
    6.8102    2.8320    3.2551 F   0  0  0  0  0  0  0  0  0  0  0  0
    1.4820    4.4947    7.0383 F   0  0  0  0  0  0  0  0  0  0  0  0
   -0.4574    2.8627    8.0061 F   0  0  0  0  0  0  0  0  0  0  0  0
  1  2  1  0
  1  3  1  0
  2  7  1  0
  2 14  1  0
  2 15  1  0
  3  4  1  0
  3 16  1  0
  3 17  1  0
  4  5  1  0
  4 30  1  0
  4 31  1  0
  5  8  1  0
  5 18  1  0
  5 19  1  0
  6  7  1  0
  6  9  1  0
  6 32  1  0
  6 33  1  0
  7 22  1  0
  7 23  1  0
  8 10  1  0
  8 20  1  0
  8 21  1  0
  9 11  1  0
  9 36  1  0
  9 37  1  0
 10 12  1  0
 10 34  1  0
 10 35  1  0
 11 13  1  0
 11 28  1  0
 11 29  1  0
 12 13  1  0
 12 24  1  0
 12 25  1  0
 13 26  1  0
 13 27  1  0
M  CHG  1   1   1
M  RAD  1   1   2
M  END
$$$$

     RDKit          3D

 37 37  0  0  0  0  0  0  0  0999 V2000
    0.9751    0.2967    1.9138 S   0  0  0  0  0  2  0  0  0  0  0  0
   -0.6093   -0.4700    3.1848 Si  0  0  0  0  0  4  0  0  0  0  0  0
    2.8178   -0.6450    2.4025 Si  0  0  0  0  0  4  0  0  0  0  0  0
    4.2302    0.7100    3.4370 Si  0  0  0  0  0  4  0  0  0  0  0  0
    5.7665   -0.5616    4.4620 Si  0  0  0  0  0  4  0  0  0  0  0  0
   -1.2412   -0.9255    6.7938 Si  0  0  0  0  0  4  0  0  0  0  0  0
   -0.0050    0.0988    5.2833 Si  0  0  0  0  0  4  0  0  0  0  0  0
    6.1833    0.1550    6.5166 Si  0  0  0  0  0  4  0  0  0  0  0  0
   -0.0827   -2.2746    8.1037 Si  0  0  0  0  0  4  0  0  0  0  0  0
    4.8701   -0.8747    8.0182 Si  0  0  0  0  0  4  0  0  0  0  0  0
    0.8458   -1.2769    9.8272 Si  0  0  0  0  0  4  0  0  0  0  0  0
    4.0321    0.5491    9.4821 Si  0  0  0  0  0  4  0  0  0  0  0  0
    1.7952    0.6463    9.3725 Si  0  0  0  0  0  4  0  0  0  0  0  0
   -0.7277   -2.1337    3.0490 F   0  0  0  0  0  0  0  0  0  0  0  0
   -2.0436    0.3077    2.7937 F   0  0  0  0  0  0  0  0  0  0  0  0
    2.5757   -2.0107    3.3722 F   0  0  0  0  0  0  0  0  0  0  0  0
    3.5731   -1.2055    0.9789 F   0  0  0  0  0  0  0  0  0  0  0  0
    7.1796   -0.5999    3.5194 F   0  0  0  0  0  0  0  0  0  0  0  0
    5.2343   -2.1708    4.5759 F   0  0  0  0  0  0  0  0  0  0  0  0
    7.7877   -0.2519    6.8949 F   0  0  0  0  0  0  0  0  0  0  0  0
    6.0604    1.8292    6.6504 F   0  0  0  0  0  0  0  0  0  0  0  0
   -0.1481    1.7878    5.3617 F   0  0  0  0  0  0  0  0  0  0  0  0
    1.6071   -0.3854    5.4121 F   0  0  0  0  0  0  0  0  0  0  0  0
    4.6067    2.1005    9.1008 F   0  0  0  0  0  0  0  0  0  0  0  0
    4.5086    0.2015   11.0532 F   0  0  0  0  0  0  0  0  0  0  0  0
    1.3804    1.2850    7.8938 F   0  0  0  0  0  0  0  0  0  0  0  0
    1.3225    1.7772   10.5623 F   0  0  0  0  0  0  0  0  0  0  0  0
   -0.3341   -1.1056   11.0479 F   0  0  0  0  0  0  0  0  0  0  0  0
    2.0255   -2.3227   10.4794 F   0  0  0  0  0  0  0  0  0  0  0  0
    3.4864    1.7638    4.4902 F   0  0  0  0  0  0  0  0  0  0  0  0
    5.0261    1.6509    2.2599 F   0  0  0  0  0  0  0  0  0  0  0  0
   -2.3992   -1.8733    5.9707 F   0  0  0  0  0  0  0  0  0  0  0  0
   -2.1457    0.1864    7.7199 F   0  0  0  0  0  0  0  0  0  0  0  0
    5.7532   -2.0743    8.8517 F   0  0  0  0  0  0  0  0  0  0  0  0
    3.6757   -1.6904    7.1495 F   0  0  0  0  0  0  0  0  0  0  0  0
    1.0373   -3.1184    7.1485 F   0  0  0  0  0  0  0  0  0  0  0  0
   -1.1595   -3.4544    8.7100 F   0  0  0  0  0  0  0  0  0  0  0  0
  1  2  1  0
  1  3  1  0
  2  7  1  0
  2 14  1  0
  2 15  1  0
  3  4  1  0
  3 16  1  0
  3 17  1  0
  4  5  1  0
  4 30  1  0
  4 31  1  0
  5  8  1  0
  5 18  1  0
  5 19  1  0
  6  7  1  0
  6  9  1  0
  6 32  1  0
  6 33  1  0
  7 22  1  0
  7 23  1  0
  8 10  1  0
  8 20  1  0
  8 21  1  0
  9 11  1  0
  9 36  1  0
  9 37  1  0
 10 12  1  0
 10 34  1  0
 10 35  1  0
 11 13  1  0
 11 28  1  0
 11 29  1  0
 12 13  1  0
 12 24  1  0
 12 25  1  0
 13 26  1  0
 13 27  1  0
M  CHG  1   1   1
M  RAD  1   1   2
M  END
$$$$
