
     RDKit          3D

 37 37  0  0  0  0  0  0  0  0999 V2000
    0.0001    0.0022    3.1942 S   0  0  0  0  0  2  0  0  0  0  0  0
   -0.5907   -1.2557    4.8224 Si  0  0  0  0  0  4  0  0  0  0  0  0
   -0.0194    2.0640    3.7159 Si  0  0  0  0  0  4  0  0  0  0  0  0
    1.6278    2.6169    5.0920 Si  0  0  0  0  0  4  0  0  0  0  0  0
    0.7709    3.2498    7.0796 Si  0  0  0  0  0  4  0  0  0  0  0  0
    1.1264   -3.5716    7.1235 Si  0  0  0  0  0  4  0  0  0  0  0  0
    1.2439   -1.6319    6.0748 Si  0  0  0  0  0  4  0  0  0  0  0  0
    2.3588    3.6909    8.5442 Si  0  0  0  0  0  4  0  0  0  0  0  0
   -0.0479   -3.3739    9.0028 Si  0  0  0  0  0  4  0  0  0  0  0  0
    2.3667    2.2351   10.2503 Si  0  0  0  0  0  4  0  0  0  0  0  0
    0.6049   -1.5692   10.1772 Si  0  0  0  0  0  4  0  0  0  0  0  0
    3.6489    0.5007    9.7990 Si  0  0  0  0  0  4  0  0  0  0  0  0
    2.7777   -1.4388   10.3655 Si  0  0  0  0  0  4  0  0  0  0  0  0
   -1.2793   -2.6869    4.3093 F   0  0  0  0  0  0  0  0  0  0  0  0
   -1.7433   -0.4558    5.7938 F   0  0  0  0  0  0  0  0  0  0  0  0
   -1.5055    2.4949    4.3943 F   0  0  0  0  0  0  0  0  0  0  0  0
    0.1193    2.9598    2.2694 F   0  0  0  0  0  0  0  0  0  0  0  0
   -0.3161    2.0911    7.5985 F   0  0  0  0  0  0  0  0  0  0  0  0
   -0.1409    4.6574    6.7593 F   0  0  0  0  0  0  0  0  0  0  0  0
    2.0996    5.2391    9.1944 F   0  0  0  0  0  0  0  0  0  0  0  0
    3.8971    3.7364    7.8243 F   0  0  0  0  0  0  0  0  0  0  0  0
    2.5619   -1.6308    5.0117 F   0  0  0  0  0  0  0  0  0  0  0  0
    1.3317   -0.3966    7.1940 F   0  0  0  0  0  0  0  0  0  0  0  0
    5.1490    0.6515   10.6016 F   0  0  0  0  0  0  0  0  0  0  0  0
    4.0259    0.5440    8.1335 F   0  0  0  0  0  0  0  0  0  0  0  0
    3.4884   -2.6426    9.3851 F   0  0  0  0  0  0  0  0  0  0  0  0
    3.2754   -1.8011   11.9567 F   0  0  0  0  0  0  0  0  0  0  0  0
   -0.1170   -0.2371    9.4799 F   0  0  0  0  0  0  0  0  0  0  0  0
   -0.0764   -1.7472   11.7328 F   0  0  0  0  0  0  0  0  0  0  0  0
    2.7642    1.4131    5.2738 F   0  0  0  0  0  0  0  0  0  0  0  0
    2.4357    3.9865    4.4760 F   0  0  0  0  0  0  0  0  0  0  0  0
    2.7025   -4.1112    7.4411 F   0  0  0  0  0  0  0  0  0  0  0  0
    0.3915   -4.7366    6.1627 F   0  0  0  0  0  0  0  0  0  0  0  0
    3.0330    3.0693   11.5839 F   0  0  0  0  0  0  0  0  0  0  0  0
    0.8027    1.8191   10.6756 F   0  0  0  0  0  0  0  0  0  0  0  0
   -1.6679   -3.0855    8.5551 F   0  0  0  0  0  0  0  0  0  0  0  0
   -0.0161   -4.7568    9.9286 F   0  0  0  0  0  0  0  0  0  0  0  0
  1  2  1  0
  1  3  1  0
  2  7  1  0
  2 14  1  0
  2 15  1  0
  3  4  1  0
  3 16  1  0
  3 17  1  0
  4  5  1  0
  4 30  1  0
  4 31  1  0
  5  8  1  0
  5 18  1  0
  5 19  1  0
  6  7  1  0
  6  9  1  0
  6 32  1  0
  6 33  1  0
  7 22  1  0
  7 23  1  0
  8 10  1  0
  8 20  1  0
  8 21  1  0
  9 11  1  0
  9 36  1  0
  9 37  1  0
 10 12  1  0
 10 34  1  0
 10 35  1  0
 11 13  1  0
 11 28  1  0
 11 29  1  0
 12 13  1  0
 12 24  1  0
 12 25  1  0
 13 26  1  0
 13 27  1  0
M  CHG  1   1   1
M  RAD  1   1   2
M  END
$$$$

     RDKit          3D

 37 37  0  0  0  0  0  0  0  0999 V2000
    0.0001    0.0022    3.1942 S   0  0  0  0  0  2  0  0  0  0  0  0
    0.6350    1.2411    4.8203 Si  0  0  0  0  0  4  0  0  0  0  0  0
   -0.0533   -2.0582    3.7194 Si  0  0  0  0  0  4  0  0  0  0  0  0
   -1.7190   -2.5502    5.0964 Si  0  0  0  0  0  4  0  0  0  0  0  0
   -0.8849   -3.2097    7.0850 Si  0  0  0  0  0  4  0  0  0  0  0  0
   -0.9990    3.6201    7.1175 Si  0  0  0  0  0  4  0  0  0  0  0  0
   -1.1851    1.6840    6.0720 Si  0  0  0  0  0  4  0  0  0  0  0  0
   -2.4874   -3.5918    8.5503 Si  0  0  0  0  0  4  0  0  0  0  0  0
    0.1676    3.3841    8.9972 Si  0  0  0  0  0  4  0  0  0  0  0  0
   -2.4438   -2.1338   10.2539 Si  0  0  0  0  0  4  0  0  0  0  0  0
   -0.5486    1.6057   10.1746 Si  0  0  0  0  0  4  0  0  0  0  0  0
   -3.6639   -0.3560    9.7997 Si  0  0  0  0  0  4  0  0  0  0  0  0
   -2.7246    1.5525   10.3630 Si  0  0  0  0  0  4  0  0  0  0  0  0
    1.3739    2.6462    4.3048 F   0  0  0  0  0  0  0  0  0  0  0  0
    1.7587    0.4026    5.7931 F   0  0  0  0  0  0  0  0  0  0  0  0
    1.4166   -2.5403    4.3985 F   0  0  0  0  0  0  0  0  0  0  0  0
   -0.2237   -2.9510    2.2744 F   0  0  0  0  0  0  0  0  0  0  0  0
    0.2423   -2.0893    7.6020 F   0  0  0  0  0  0  0  0  0  0  0  0
   -0.0235   -4.6492    6.7671 F   0  0  0  0  0  0  0  0  0  0  0  0
   -2.2831   -5.1471    9.2031 F   0  0  0  0  0  0  0  0  0  0  0  0
   -4.0264   -3.5842    7.8304 F   0  0  0  0  0  0  0  0  0  0  0  0
   -2.5023    1.7278    5.0089 F   0  0  0  0  0  0  0  0  0  0  0  0
   -1.3164    0.4545    7.1933 F   0  0  0  0  0  0  0  0  0  0  0  0
   -5.1683   -0.4522   10.6025 F   0  0  0  0  0  0  0  0  0  0  0  0
   -4.0422   -0.3887    8.1343 F   0  0  0  0  0  0  0  0  0  0  0  0
   -3.3922    2.7791    9.3805 F   0  0  0  0  0  0  0  0  0  0  0  0
   -3.2092    1.9348   11.9536 F   0  0  0  0  0  0  0  0  0  0  0  0
    0.1258    0.2477    9.4795 F   0  0  0  0  0  0  0  0  0  0  0  0
    0.1387    1.7620   11.7298 F   0  0  0  0  0  0  0  0  0  0  0  0
   -2.8121   -1.3066    5.2761 F   0  0  0  0  0  0  0  0  0  0  0  0
   -2.5749   -3.8913    4.4826 F   0  0  0  0  0  0  0  0  0  0  0  0
   -2.5550    4.2157    7.4342 F   0  0  0  0  0  0  0  0  0  0  0  0
   -0.2234    4.7568    6.1548 F   0  0  0  0  0  0  0  0  0  0  0  0
   -3.1391   -2.9417   11.5889 F   0  0  0  0  0  0  0  0  0  0  0  0
   -0.8660   -1.7727   10.6786 F   0  0  0  0  0  0  0  0  0  0  0  0
    1.7764    3.0379    8.5500 F   0  0  0  0  0  0  0  0  0  0  0  0
    0.1848    4.7689    9.9206 F   0  0  0  0  0  0  0  0  0  0  0  0
  1  2  1  0
  1  3  1  0
  2  7  1  0
  2 14  1  0
  2 15  1  0
  3  4  1  0
  3 16  1  0
  3 17  1  0
  4  5  1  0
  4 30  1  0
  4 31  1  0
  5  8  1  0
  5 18  1  0
  5 19  1  0
  6  7  1  0
  6  9  1  0
  6 32  1  0
  6 33  1  0
  7 22  1  0
  7 23  1  0
  8 10  1  0
  8 20  1  0
  8 21  1  0
  9 11  1  0
  9 36  1  0
  9 37  1  0
 10 12  1  0
 10 34  1  0
 10 35  1  0
 11 13  1  0
 11 28  1  0
 11 29  1  0
 12 13  1  0
 12 24  1  0
 12 25  1  0
 13 26  1  0
 13 27  1  0
M  CHG  1   1   1
M  RAD  1   1   2
M  END
$$$$

     RDKit          3D

 37 37  0  0  0  0  0  0  0  0999 V2000
    0.0001    0.0022    3.1942 S   0  0  0  0  0  2  0  0  0  0  0  0
   -0.9189   -1.0405    4.8222 Si  0  0  0  0  0  4  0  0  0  0  0  0
    0.5572    1.9874    3.7160 Si  0  0  0  0  0  4  0  0  0  0  0  0
    2.2930    2.0582    5.0925 Si  0  0  0  0  0  4  0  0  0  0  0  0
    1.6465    2.9054    7.0799 Si  0  0  0  0  0  4  0  0  0  0  0  0
    0.0823   -3.7438    7.1236 Si  0  0  0  0  0  4  0  0  0  0  0  0
    0.7372   -1.9142    6.0750 Si  0  0  0  0  0  4  0  0  0  0  0  0
    3.2941    2.8853    8.5448 Si  0  0  0  0  0  4  0  0  0  0  0  0
   -0.9905   -3.2259    9.0027 Si  0  0  0  0  0  4  0  0  0  0  0  0
    2.8946    1.4853   10.2509 Si  0  0  0  0  0  4  0  0  0  0  0  0
    0.1402   -1.6754   10.1773 Si  0  0  0  0  0  4  0  0  0  0  0  0
    3.6414   -0.5382    9.7999 Si  0  0  0  0  0  4  0  0  0  0  0  0
    2.2629   -2.1572   10.3661 Si  0  0  0  0  0  4  0  0  0  0  0  0
   -1.9798   -2.2224    4.3089 F   0  0  0  0  0  0  0  0  0  0  0  0
   -1.8024    0.0495    5.7934 F   0  0  0  0  0  0  0  0  0  0  0  0
   -0.7494    2.8163    4.3940 F   0  0  0  0  0  0  0  0  0  0  0  0
    0.9410    2.8088    2.2696 F   0  0  0  0  0  0  0  0  0  0  0  0
    0.2791    2.0964    7.5985 F   0  0  0  0  0  0  0  0  0  0  0  0
    1.1643    4.5116    6.7594 F   0  0  0  0  0  0  0  0  0  0  0  0
    3.4776    4.4443    9.1951 F   0  0  0  0  0  0  0  0  0  0  0  0
    4.7841    2.4993    7.8253 F   0  0  0  0  0  0  0  0  0  0  0  0
    2.0033   -2.2814    5.0123 F   0  0  0  0  0  0  0  0  0  0  0  0
    1.1663   -0.7526    7.1943 F   0  0  0  0  0  0  0  0  0  0  0  0
    5.1236   -0.8125   10.6028 F   0  0  0  0  0  0  0  0  0  0  0  0
    4.0159   -0.6020    8.1345 F   0  0  0  0  0  0  0  0  0  0  0  0
    2.6092   -3.5116    9.3858 F   0  0  0  0  0  0  0  0  0  0  0  0
    2.6392   -2.6440   11.9574 F   0  0  0  0  0  0  0  0  0  0  0  0
   -0.1807   -0.1947    9.4798 F   0  0  0  0  0  0  0  0  0  0  0  0
   -0.5641   -1.6559   11.7327 F   0  0  0  0  0  0  0  0  0  0  0  0
    3.0478    0.5848    5.2745 F   0  0  0  0  0  0  0  0  0  0  0  0
    3.4515    3.1475    4.4767 F   0  0  0  0  0  0  0  0  0  0  0  0
    1.4449   -4.7022    7.4416 F   0  0  0  0  0  0  0  0  0  0  0  0
   -0.9486   -4.6572    6.1626 F   0  0  0  0  0  0  0  0  0  0  0  0
    3.7671    2.1002   11.5847 F   0  0  0  0  0  0  0  0  0  0  0  0
    1.2765    1.5228   10.6758 F   0  0  0  0  0  0  0  0  0  0  0  0
   -2.4653   -2.4964    8.5547 F   0  0  0  0  0  0  0  0  0  0  0  0
   -1.3465   -4.5626    9.9284 F   0  0  0  0  0  0  0  0  0  0  0  0
  1  2  1  0
  1  3  1  0
  2  7  1  0
  2 14  1  0
  2 15  1  0
  3  4  1  0
  3 16  1  0
  3 17  1  0
  4  5  1  0
  4 30  1  0
  4 31  1  0
  5  8  1  0
  5 18  1  0
  5 19  1  0
  6  7  1  0
  6  9  1  0
  6 32  1  0
  6 33  1  0
  7 22  1  0
  7 23  1  0
  8 10  1  0
  8 20  1  0
  8 21  1  0
  9 11  1  0
  9 36  1  0
  9 37  1  0
 10 12  1  0
 10 34  1  0
 10 35  1  0
 11 13  1  0
 11 28  1  0
 11 29  1  0
 12 13  1  0
 12 24  1  0
 12 25  1  0
 13 26  1  0
 13 27  1  0
M  CHG  1   1   1
M  RAD  1   1   2
M  END
$$$$

     RDKit          3D

 37 37  0  0  0  0  0  0  0  0999 V2000
    0.0001    0.0022    3.1942 S   0  0  0  0  0  2  0  0  0  0  0  0
   -0.3410    2.0468    3.8107 Si  0  0  0  0  0  4  0  0  0  0  0  0
   -1.4645   -1.3120    3.9830 Si  0  0  0  0  0  4  0  0  0  0  0  0
   -0.7207   -2.3203    5.8507 Si  0  0  0  0  0  4  0  0  0  0  0  0
   -2.0462   -4.0609    6.3305 Si  0  0  0  0  0  4  0  0  0  0  0  0
   -0.6500    3.4325    7.2254 Si  0  0  0  0  0  4  0  0  0  0  0  0
    0.6143    2.4191    5.7520 Si  0  0  0  0  0  4  0  0  0  0  0  0
   -3.0105   -3.7803    8.3464 Si  0  0  0  0  0  4  0  0  0  0  0  0
   -2.7907    3.0194    7.0751 Si  0  0  0  0  0  4  0  0  0  0  0  0
   -1.5425   -2.8860    9.7612 Si  0  0  0  0  0  4  0  0  0  0  0  0
   -3.6129    2.2812    9.0447 Si  0  0  0  0  0  4  0  0  0  0  0  0
   -1.9632   -0.7563   10.1807 Si  0  0  0  0  0  4  0  0  0  0  0  0
   -3.6533    0.0381    8.9878 Si  0  0  0  0  0  4  0  0  0  0  0  0
   -1.9713    2.4292    3.7714 F   0  0  0  0  0  0  0  0  0  0  0  0
    0.4135    3.0189    2.6252 F   0  0  0  0  0  0  0  0  0  0  0  0
   -1.7165   -2.5569    2.8430 F   0  0  0  0  0  0  0  0  0  0  0  0
   -2.9483   -0.5791    4.2351 F   0  0  0  0  0  0  0  0  0  0  0  0
   -3.2327   -4.2530    5.1479 F   0  0  0  0  0  0  0  0  0  0  0  0
   -1.0881   -5.4673    6.4346 F   0  0  0  0  0  0  0  0  0  0  0  0
   -4.3546   -2.7669    8.2125 F   0  0  0  0  0  0  0  0  0  0  0  0
   -3.5045   -5.3049    8.8738 F   0  0  0  0  0  0  0  0  0  0  0  0
    2.0382    3.3405    5.5483 F   0  0  0  0  0  0  0  0  0  0  0  0
    1.1390    0.9357    6.4135 F   0  0  0  0  0  0  0  0  0  0  0  0
   -0.5626    0.1698    9.9636 F   0  0  0  0  0  0  0  0  0  0  0  0
   -2.3808   -0.6049   11.8268 F   0  0  0  0  0  0  0  0  0  0  0  0
   -5.1012   -0.5446    9.6655 F   0  0  0  0  0  0  0  0  0  0  0  0
   -3.6045   -0.4544    7.3941 F   0  0  0  0  0  0  0  0  0  0  0  0
   -2.6627    2.8549   10.2882 F   0  0  0  0  0  0  0  0  0  0  0  0
   -5.1959    2.8044    9.2557 F   0  0  0  0  0  0  0  0  0  0  0  0
    0.8544   -2.8199    5.5460 F   0  0  0  0  0  0  0  0  0  0  0  0
   -0.7317   -1.2890    7.1559 F   0  0  0  0  0  0  0  0  0  0  0  0
   -0.1151    2.9994    8.7879 F   0  0  0  0  0  0  0  0  0  0  0  0
   -0.3893    5.1120    7.1062 F   0  0  0  0  0  0  0  0  0  0  0  0
   -1.5830   -3.8077   11.1928 F   0  0  0  0  0  0  0  0  0  0  0  0
    0.0144   -3.0938    9.1135 F   0  0  0  0  0  0  0  0  0  0  0  0
   -3.2055    1.8800    5.9342 F   0  0  0  0  0  0  0  0  0  0  0  0
   -3.6593    4.4448    6.7187 F   0  0  0  0  0  0  0  0  0  0  0  0
  1  2  1  0
  1  3  1  0
  2  7  1  0
  2 14  1  0
  2 15  1  0
  3  4  1  0
  3 16  1  0
  3 17  1  0
  4  5  1  0
  4 30  1  0
  4 31  1  0
  5  8  1  0
  5 18  1  0
  5 19  1  0
  6  7  1  0
  6  9  1  0
  6 32  1  0
  6 33  1  0
  7 22  1  0
  7 23  1  0
  8 10  1  0
  8 20  1  0
  8 21  1  0
  9 11  1  0
  9 36  1  0
  9 37  1  0
 10 12  1  0
 10 34  1  0
 10 35  1  0
 11 13  1  0
 11 28  1  0
 11 29  1  0
 12 13  1  0
 12 24  1  0
 12 25  1  0
 13 26  1  0
 13 27  1  0
M  CHG  1   1   1
M  RAD  1   1   2
M  END
$$$$

     RDKit          3D

 37 37  0  0  0  0  0  0  0  0999 V2000
    0.0001    0.0022    3.1942 S   0  0  0  0  0  2  0  0  0  0  0  0
    1.5356   -0.0981    4.5877 Si  0  0  0  0  0  4  0  0  0  0  0  0
   -1.9365   -0.4949    3.8098 Si  0  0  0  0  0  4  0  0  0  0  0  0
   -2.3945   -0.2573    5.9288 Si  0  0  0  0  0  4  0  0  0  0  0  0
   -2.6455   -2.2719    6.8924 Si  0  0  0  0  0  4  0  0  0  0  0  0
    3.2321   -2.4626    6.8415 Si  0  0  0  0  0  4  0  0  0  0  0  0
    2.3935   -2.1736    4.8016 Si  0  0  0  0  0  4  0  0  0  0  0  0
   -2.7341   -2.0820    9.1115 Si  0  0  0  0  0  4  0  0  0  0  0  0
    2.6007   -4.4570    7.5792 Si  0  0  0  0  0  4  0  0  0  0  0  0
   -1.0066   -0.9850    9.9362 Si  0  0  0  0  0  4  0  0  0  0  0  0
    2.6210   -4.5678    9.7973 Si  0  0  0  0  0  4  0  0  0  0  0  0
    0.2200   -2.2259   11.3161 Si  0  0  0  0  0  4  0  0  0  0  0  0
    0.5329   -4.2781   10.5630 Si  0  0  0  0  0  4  0  0  0  0  0  0
    1.1674    0.4715    6.1145 F   0  0  0  0  0  0  0  0  0  0  0  0
    2.8388    0.8591    4.0276 F   0  0  0  0  0  0  0  0  0  0  0  0
   -2.2582   -2.1057    3.3369 F   0  0  0  0  0  0  0  0  0  0  0  0
   -3.0226    0.4458    2.8873 F   0  0  0  0  0  0  0  0  0  0  0  0
   -4.1616   -2.8600    6.3763 F   0  0  0  0  0  0  0  0  0  0  0  0
   -1.4900   -3.3535    6.3829 F   0  0  0  0  0  0  0  0  0  0  0  0
   -2.8558   -3.6222    9.7600 F   0  0  0  0  0  0  0  0  0  0  0  0
   -4.1959   -1.2789    9.4793 F   0  0  0  0  0  0  0  0  0  0  0  0
    3.6638   -2.3805    3.6817 F   0  0  0  0  0  0  0  0  0  0  0  0
    1.1890   -3.2679    4.4374 F   0  0  0  0  0  0  0  0  0  0  0  0
   -0.4684   -2.2189   12.8417 F   0  0  0  0  0  0  0  0  0  0  0  0
    1.7453   -1.4797   11.4486 F   0  0  0  0  0  0  0  0  0  0  0  0
    0.3167   -5.3554   11.8653 F   0  0  0  0  0  0  0  0  0  0  0  0
   -0.5680   -4.7150    9.3797 F   0  0  0  0  0  0  0  0  0  0  0  0
    3.6817   -3.4824   10.4912 F   0  0  0  0  0  0  0  0  0  0  0  0
    3.1443   -6.1315   10.2246 F   0  0  0  0  0  0  0  0  0  0  0  0
   -1.2863    0.6739    6.7810 F   0  0  0  0  0  0  0  0  0  0  0  0
   -3.8982    0.5275    6.1290 F   0  0  0  0  0  0  0  0  0  0  0  0
    2.7740   -1.2268    7.8869 F   0  0  0  0  0  0  0  0  0  0  0  0
    4.9373   -2.4519    6.7905 F   0  0  0  0  0  0  0  0  0  0  0  0
    0.0020   -0.3542    8.7526 F   0  0  0  0  0  0  0  0  0  0  0  0
   -1.5861    0.3401   10.8411 F   0  0  0  0  0  0  0  0  0  0  0  0
    1.0614   -4.7945    7.0276 F   0  0  0  0  0  0  0  0  0  0  0  0
    3.6472   -5.6130    6.8983 F   0  0  0  0  0  0  0  0  0  0  0  0
  1  2  1  0
  1  3  1  0
  2  7  1  0
  2 14  1  0
  2 15  1  0
  3  4  1  0
  3 16  1  0
  3 17  1  0
  4  5  1  0
  4 30  1  0
  4 31  1  0
  5  8  1  0
  5 18  1  0
  5 19  1  0
  6  7  1  0
  6  9  1  0
  6 32  1  0
  6 33  1  0
  7 22  1  0
  7 23  1  0
  8 10  1  0
  8 20  1  0
  8 21  1  0
  9 11  1  0
  9 36  1  0
  9 37  1  0
 10 12  1  0
 10 34  1  0
 10 35  1  0
 11 13  1  0
 11 28  1  0
 11 29  1  0
 12 13  1  0
 12 24  1  0
 12 25  1  0
 13 26  1  0
 13 27  1  0
M  CHG  1   1   1
M  RAD  1   1   2
M  END
$$$$
