
     RDKit          3D

 37 37  0  0  0  0  0  0  0  0999 V2000
   -0.0000   -0.0028   -3.1942 S   0  0  0  0  0  2  0  0  0  0  0  0
    1.3990    1.5287   -3.7941 Si  0  0  0  0  0  4  0  0  0  0  0  0
   -1.9168    0.4155   -4.0372 Si  0  0  0  0  0  4  0  0  0  0  0  0
   -2.5211   -1.0725   -5.5578 Si  0  0  0  0  0  4  0  0  0  0  0  0
   -0.9235   -2.5795   -5.9478 Si  0  0  0  0  0  4  0  0  0  0  0  0
    2.5050    2.7151   -7.1068 Si  0  0  0  0  0  4  0  0  0  0  0  0
    0.7678    2.3597   -5.7631 Si  0  0  0  0  0  4  0  0  0  0  0  0
   -1.2589   -3.4455   -7.9682 Si  0  0  0  0  0  4  0  0  0  0  0  0
    1.9710    2.0991   -9.1931 Si  0  0  0  0  0  4  0  0  0  0  0  0
    0.6271   -3.9384   -9.0065 Si  0  0  0  0  0  4  0  0  0  0  0  0
    1.4066   -0.0776   -9.2444 Si  0  0  0  0  0  4  0  0  0  0  0  0
    2.4268   -3.3400   -7.8580 Si  0  0  0  0  0  4  0  0  0  0  0  0
    2.9382   -1.2062   -8.1124 Si  0  0  0  0  0  4  0  0  0  0  0  0
    2.9395    0.8519   -3.9011 F   0  0  0  0  0  0  0  0  0  0  0  0
    1.4324    2.7382   -2.6210 F   0  0  0  0  0  0  0  0  0  0  0  0
   -3.0852    0.4279   -2.8074 F   0  0  0  0  0  0  0  0  0  0  0  0
   -1.9028    1.9796   -4.7009 F   0  0  0  0  0  0  0  0  0  0  0  0
    0.5880   -1.8951   -5.7792 F   0  0  0  0  0  0  0  0  0  0  0  0
   -1.0993   -3.8077   -4.7897 F   0  0  0  0  0  0  0  0  0  0  0  0
   -2.2471   -4.8252   -7.7789 F   0  0  0  0  0  0  0  0  0  0  0  0
   -2.1691   -2.3751   -8.9371 F   0  0  0  0  0  0  0  0  0  0  0  0
   -0.2471    1.2481   -6.4970 F   0  0  0  0  0  0  0  0  0  0  0  0
   -0.1197    3.7880   -5.5489 F   0  0  0  0  0  0  0  0  0  0  0  0
    2.2538   -3.7732   -6.2283 F   0  0  0  0  0  0  0  0  0  0  0  0
    3.7378   -4.2617   -8.4476 F   0  0  0  0  0  0  0  0  0  0  0  0
    4.4276   -1.0076   -8.9219 F   0  0  0  0  0  0  0  0  0  0  0  0
    3.1238   -0.4853   -6.5979 F   0  0  0  0  0  0  0  0  0  0  0  0
   -0.1170   -0.2160   -8.5809 F   0  0  0  0  0  0  0  0  0  0  0  0
    1.3228   -0.5541  -10.8570 F   0  0  0  0  0  0  0  0  0  0  0  0
   -2.8216   -0.2686   -7.0228 F   0  0  0  0  0  0  0  0  0  0  0  0
   -3.9202   -1.8941   -5.1368 F   0  0  0  0  0  0  0  0  0  0  0  0
    3.8911    1.9499   -6.5666 F   0  0  0  0  0  0  0  0  0  0  0  0
    2.8072    4.3730   -7.1380 F   0  0  0  0  0  0  0  0  0  0  0  0
    0.6956   -3.2779  -10.5538 F   0  0  0  0  0  0  0  0  0  0  0  0
    0.6868   -5.6328   -9.2031 F   0  0  0  0  0  0  0  0  0  0  0  0
    0.5690    2.9648   -9.6135 F   0  0  0  0  0  0  0  0  0  0  0  0
    3.2036    2.4307  -10.2650 F   0  0  0  0  0  0  0  0  0  0  0  0
  1  2  1  0
  1  3  1  0
  2  7  1  0
  2 14  1  0
  2 15  1  0
  3  4  1  0
  3 16  1  0
  3 17  1  0
  4  5  1  0
  4 30  1  0
  4 31  1  0
  5  8  1  0
  5 18  1  0
  5 19  1  0
  6  7  1  0
  6  9  1  0
  6 32  1  0
  6 33  1  0
  7 22  1  0
  7 23  1  0
  8 10  1  0
  8 20  1  0
  8 21  1  0
  9 11  1  0
  9 36  1  0
  9 37  1  0
 10 12  1  0
 10 34  1  0
 10 35  1  0
 11 13  1  0
 11 28  1  0
 11 29  1  0
 12 13  1  0
 12 24  1  0
 12 25  1  0
 13 26  1  0
 13 27  1  0
M  CHG  1   1   1
M  RAD  1   1   2
M  END
$$$$

     RDKit          3D

 37 37  0  0  0  0  0  0  0  0999 V2000
   -0.0000   -0.0028   -3.1942 S   0  0  0  0  0  2  0  0  0  0  0  0
    1.4607    0.3408   -4.6517 Si  0  0  0  0  0  4  0  0  0  0  0  0
   -1.9934    0.0372   -3.8242 Si  0  0  0  0  0  4  0  0  0  0  0  0
   -2.5195    1.6819   -5.1955 Si  0  0  0  0  0  4  0  0  0  0  0  0
   -3.8656    0.8553   -6.7971 Si  0  0  0  0  0  4  0  0  0  0  0  0
    1.3510   -3.2600   -5.4223 Si  0  0  0  0  0  4  0  0  0  0  0  0
    2.6512   -1.4874   -5.1576 Si  0  0  0  0  0  4  0  0  0  0  0  0
   -3.4855    1.7862   -8.7540 Si  0  0  0  0  0  4  0  0  0  0  0  0
    0.0388   -2.9735   -7.2168 Si  0  0  0  0  0  4  0  0  0  0  0  0
   -1.6523    1.0103   -9.7383 Si  0  0  0  0  0  4  0  0  0  0  0  0
    1.1939   -3.0601   -9.1023 Si  0  0  0  0  0  4  0  0  0  0  0  0
   -1.7694   -1.1487  -10.1852 Si  0  0  0  0  0  4  0  0  0  0  0  0
    0.2782   -1.8749  -10.7244 Si  0  0  0  0  0  4  0  0  0  0  0  0
    0.8743    0.9567   -6.0961 F   0  0  0  0  0  0  0  0  0  0  0  0
    2.5712    1.4899   -4.0483 F   0  0  0  0  0  0  0  0  0  0  0  0
   -2.9851    0.1790   -2.4400 F   0  0  0  0  0  0  0  0  0  0  0  0
   -2.3940   -1.4739   -4.5094 F   0  0  0  0  0  0  0  0  0  0  0  0
   -5.4840    1.1761   -6.3609 F   0  0  0  0  0  0  0  0  0  0  0  0
   -3.7269   -0.8332   -6.8521 F   0  0  0  0  0  0  0  0  0  0  0  0
   -4.7971    1.4849   -9.7686 F   0  0  0  0  0  0  0  0  0  0  0  0
   -3.2981    3.4500   -8.5428 F   0  0  0  0  0  0  0  0  0  0  0  0
    3.4141   -1.1805   -6.6521 F   0  0  0  0  0  0  0  0  0  0  0  0
    3.8416   -1.7350   -4.0215 F   0  0  0  0  0  0  0  0  0  0  0  0
   -2.4602   -2.0499   -8.9699 F   0  0  0  0  0  0  0  0  0  0  0  0
   -2.7350   -1.3422  -11.5789 F   0  0  0  0  0  0  0  0  0  0  0  0
    1.2969   -0.5474  -11.0453 F   0  0  0  0  0  0  0  0  0  0  0  0
    0.2407   -2.7960  -12.1481 F   0  0  0  0  0  0  0  0  0  0  0  0
    2.7822   -2.5336   -8.7710 F   0  0  0  0  0  0  0  0  0  0  0  0
    1.3161   -4.6953   -9.5700 F   0  0  0  0  0  0  0  0  0  0  0  0
   -1.2163    2.4089   -5.9195 F   0  0  0  0  0  0  0  0  0  0  0  0
   -3.3925    2.8968   -4.3727 F   0  0  0  0  0  0  0  0  0  0  0  0
    0.3768   -3.4484   -4.0637 F   0  0  0  0  0  0  0  0  0  0  0  0
    2.3015   -4.6018   -5.6858 F   0  0  0  0  0  0  0  0  0  0  0  0
   -1.4827    1.8415  -11.2194 F   0  0  0  0  0  0  0  0  0  0  0  0
   -0.2797    1.3416   -8.8384 F   0  0  0  0  0  0  0  0  0  0  0  0
   -0.8224   -1.5540   -7.0641 F   0  0  0  0  0  0  0  0  0  0  0  0
   -1.0637   -4.2743   -7.2256 F   0  0  0  0  0  0  0  0  0  0  0  0
  1  2  1  0
  1  3  1  0
  2  7  1  0
  2 14  1  0
  2 15  1  0
  3  4  1  0
  3 16  1  0
  3 17  1  0
  4  5  1  0
  4 30  1  0
  4 31  1  0
  5  8  1  0
  5 18  1  0
  5 19  1  0
  6  7  1  0
  6  9  1  0
  6 32  1  0
  6 33  1  0
  7 22  1  0
  7 23  1  0
  8 10  1  0
  8 20  1  0
  8 21  1  0
  9 11  1  0
  9 36  1  0
  9 37  1  0
 10 12  1  0
 10 34  1  0
 10 35  1  0
 11 13  1  0
 11 28  1  0
 11 29  1  0
 12 13  1  0
 12 24  1  0
 12 25  1  0
 13 26  1  0
 13 27  1  0
M  CHG  1   1   1
M  RAD  1   1   2
M  END
$$$$

     RDKit          3D

 37 37  0  0  0  0  0  0  0  0999 V2000
   -0.0000   -0.0028   -3.1942 S   0  0  0  0  0  2  0  0  0  0  0  0
    1.5299   -0.6858   -4.5694 Si  0  0  0  0  0  4  0  0  0  0  0  0
   -1.8545   -0.0538   -4.2282 Si  0  0  0  0  0  4  0  0  0  0  0  0
   -3.2936    1.4715   -3.4547 Si  0  0  0  0  0  4  0  0  0  0  0  0
   -5.3284    0.9027   -4.1382 Si  0  0  0  0  0  4  0  0  0  0  0  0
    0.6709   -0.7207   -8.1565 Si  0  0  0  0  0  4  0  0  0  0  0  0
    1.4139    0.5027   -6.4705 Si  0  0  0  0  0  4  0  0  0  0  0  0
   -6.1215    2.2461   -5.6934 Si  0  0  0  0  0  4  0  0  0  0  0  0
   -0.7962    0.4279   -9.4229 Si  0  0  0  0  0  4  0  0  0  0  0  0
   -4.6001    2.9398   -7.1264 Si  0  0  0  0  0  4  0  0  0  0  0  0
   -2.5038   -0.8447  -10.0233 Si  0  0  0  0  0  4  0  0  0  0  0  0
   -4.7437    1.9374   -9.1013 Si  0  0  0  0  0  4  0  0  0  0  0  0
   -4.4009   -0.2326   -9.0016 Si  0  0  0  0  0  4  0  0  0  0  0  0
    1.2874   -2.3151   -4.8841 F   0  0  0  0  0  0  0  0  0  0  0  0
    3.0031   -0.4823   -3.8036 F   0  0  0  0  0  0  0  0  0  0  0  0
   -2.5784   -1.5691   -4.0358 F   0  0  0  0  0  0  0  0  0  0  0  0
   -1.6113    0.2414   -5.8612 F   0  0  0  0  0  0  0  0  0  0  0  0
   -5.3513   -0.7310   -4.6197 F   0  0  0  0  0  0  0  0  0  0  0  0
   -6.3642    0.9926   -2.7844 F   0  0  0  0  0  0  0  0  0  0  0  0
   -7.3400    1.4319   -6.5401 F   0  0  0  0  0  0  0  0  0  0  0  0
   -6.8670    3.5706   -4.9176 F   0  0  0  0  0  0  0  0  0  0  0  0
    2.9864    1.0060   -6.8301 F   0  0  0  0  0  0  0  0  0  0  0  0
    0.4519    1.8731   -6.2602 F   0  0  0  0  0  0  0  0  0  0  0  0
   -6.2743    2.2926   -9.7486 F   0  0  0  0  0  0  0  0  0  0  0  0
   -3.6178    2.6910  -10.1367 F   0  0  0  0  0  0  0  0  0  0  0  0
   -5.6708   -1.0114   -9.8351 F   0  0  0  0  0  0  0  0  0  0  0  0
   -4.3673   -0.8451   -7.4513 F   0  0  0  0  0  0  0  0  0  0  0  0
   -2.1597   -2.4488   -9.5563 F   0  0  0  0  0  0  0  0  0  0  0  0
   -2.7524   -0.8581  -11.6798 F   0  0  0  0  0  0  0  0  0  0  0  0
   -2.8687    3.0251   -3.9130 F   0  0  0  0  0  0  0  0  0  0  0  0
   -3.1954    1.4164   -1.7516 F   0  0  0  0  0  0  0  0  0  0  0  0
   -0.1062   -2.1040   -7.5881 F   0  0  0  0  0  0  0  0  0  0  0  0
    1.9422   -1.2583   -9.1550 F   0  0  0  0  0  0  0  0  0  0  0  0
   -3.0768    2.7934   -6.4440 F   0  0  0  0  0  0  0  0  0  0  0  0
   -4.8550    4.6071   -7.4006 F   0  0  0  0  0  0  0  0  0  0  0  0
    0.0128    0.9115  -10.8452 F   0  0  0  0  0  0  0  0  0  0  0  0
   -1.2728    1.8194   -8.6340 F   0  0  0  0  0  0  0  0  0  0  0  0
  1  2  1  0
  1  3  1  0
  2  7  1  0
  2 14  1  0
  2 15  1  0
  3  4  1  0
  3 16  1  0
  3 17  1  0
  4  5  1  0
  4 30  1  0
  4 31  1  0
  5  8  1  0
  5 18  1  0
  5 19  1  0
  6  7  1  0
  6  9  1  0
  6 32  1  0
  6 33  1  0
  7 22  1  0
  7 23  1  0
  8 10  1  0
  8 20  1  0
  8 21  1  0
  9 11  1  0
  9 36  1  0
  9 37  1  0
 10 12  1  0
 10 34  1  0
 10 35  1  0
 11 13  1  0
 11 28  1  0
 11 29  1  0
 12 13  1  0
 12 24  1  0
 12 25  1  0
 13 26  1  0
 13 27  1  0
M  CHG  1   1   1
M  RAD  1   1   2
M  END
$$$$

     RDKit          3D

 37 37  0  0  0  0  0  0  0  0999 V2000
   -0.0000   -0.0028   -3.1942 S   0  0  0  0  0  2  0  0  0  0  0  0
    1.5745   -1.3542   -3.7917 Si  0  0  0  0  0  4  0  0  0  0  0  0
    0.3594    1.9253   -4.0385 Si  0  0  0  0  0  4  0  0  0  0  0  0
   -1.1452    2.4821   -5.5608 Si  0  0  0  0  0  4  0  0  0  0  0  0
   -2.6018    0.8384   -5.9506 Si  0  0  0  0  0  4  0  0  0  0  0  0
    2.7973   -2.4257   -7.1025 Si  0  0  0  0  0  4  0  0  0  0  0  0
    2.3872   -0.6991   -5.7605 Si  0  0  0  0  0  4  0  0  0  0  0  0
   -3.4760    1.1451   -7.9720 Si  0  0  0  0  0  4  0  0  0  0  0  0
    2.1668   -1.9127   -9.1897 Si  0  0  0  0  0  4  0  0  0  0  0  0
   -3.9094   -0.7560   -9.0092 Si  0  0  0  0  0  4  0  0  0  0  0  0
   -0.0262   -1.4160   -9.2433 Si  0  0  0  0  0  4  0  0  0  0  0  0
   -3.2567   -2.5355   -7.8587 Si  0  0  0  0  0  4  0  0  0  0  0  0
   -1.1078   -2.9808   -8.1109 Si  0  0  0  0  0  4  0  0  0  0  0  0
    0.9458   -2.9150   -3.8979 F   0  0  0  0  0  0  0  0  0  0  0  0
    2.7835   -1.3492   -2.6176 F   0  0  0  0  0  0  0  0  0  0  0  0
    0.3347    3.0946   -2.8096 F   0  0  0  0  0  0  0  0  0  0  0  0
    1.9239    1.9593   -4.7009 F   0  0  0  0  0  0  0  0  0  0  0  0
   -1.8711   -0.6512   -5.7802 F   0  0  0  0  0  0  0  0  0  0  0  0
   -3.8358    0.9770   -4.7937 F   0  0  0  0  0  0  0  0  0  0  0  0
   -4.8858    2.0903   -7.7847 F   0  0  0  0  0  0  0  0  0  0  0  0
   -2.4335    2.0872   -8.9409 F   0  0  0  0  0  0  0  0  0  0  0  0
    1.2453    0.2802   -6.4962 F   0  0  0  0  0  0  0  0  0  0  0  0
    3.7873    0.2322   -5.5459 F   0  0  0  0  0  0  0  0  0  0  0  0
   -3.6963   -2.3746   -6.2294 F   0  0  0  0  0  0  0  0  0  0  0  0
   -4.1368   -3.8749   -8.4479 F   0  0  0  0  0  0  0  0  0  0  0  0
   -0.8625   -4.4640   -8.9190 F   0  0  0  0  0  0  0  0  0  0  0  0
   -0.3827   -3.1427   -6.5956 F   0  0  0  0  0  0  0  0  0  0  0  0
   -0.2123    0.1032   -8.5811 F   0  0  0  0  0  0  0  0  0  0  0  0
   -0.5037   -1.3482  -10.8563 F   0  0  0  0  0  0  0  0  0  0  0  0
   -0.3498    2.8062   -7.0254 F   0  0  0  0  0  0  0  0  0  0  0  0
   -2.0101    3.8555   -5.1416 F   0  0  0  0  0  0  0  0  0  0  0  0
    2.0750   -3.8343   -6.5618 F   0  0  0  0  0  0  0  0  0  0  0  0
    4.4638   -2.6764   -7.1321 F   0  0  0  0  0  0  0  0  0  0  0  0
   -3.2459   -0.8054  -10.5558 F   0  0  0  0  0  0  0  0  0  0  0  0
   -5.6011   -0.8684   -9.2071 F   0  0  0  0  0  0  0  0  0  0  0  0
    2.9891   -0.4849   -9.6106 F   0  0  0  0  0  0  0  0  0  0  0  0
    2.5374   -3.1353  -10.2603 F   0  0  0  0  0  0  0  0  0  0  0  0
  1  2  1  0
  1  3  1  0
  2  7  1  0
  2 14  1  0
  2 15  1  0
  3  4  1  0
  3 16  1  0
  3 17  1  0
  4  5  1  0
  4 30  1  0
  4 31  1  0
  5  8  1  0
  5 18  1  0
  5 19  1  0
  6  7  1  0
  6  9  1  0
  6 32  1  0
  6 33  1  0
  7 22  1  0
  7 23  1  0
  8 10  1  0
  8 20  1  0
  8 21  1  0
  9 11  1  0
  9 36  1  0
  9 37  1  0
 10 12  1  0
 10 34  1  0
 10 35  1  0
 11 13  1  0
 11 28  1  0
 11 29  1  0
 12 13  1  0
 12 24  1  0
 12 25  1  0
 13 26  1  0
 13 27  1  0
M  CHG  1   1   1
M  RAD  1   1   2
M  END
$$$$

     RDKit          3D

 37 37  0  0  0  0  0  0  0  0999 V2000
   -0.0000   -0.0028   -3.1942 S   0  0  0  0  0  2  0  0  0  0  0  0
    0.3898   -1.4533   -4.6502 Si  0  0  0  0  0  4  0  0  0  0  0  0
   -0.0212    1.9904   -3.8258 Si  0  0  0  0  0  4  0  0  0  0  0  0
    1.6076    2.5661   -5.1962 Si  0  0  0  0  0  4  0  0  0  0  0  0
    0.7411    3.8846   -6.7996 Si  0  0  0  0  0  4  0  0  0  0  0  0
   -3.2120   -1.4557   -5.4238 Si  0  0  0  0  0  4  0  0  0  0  0  0
   -1.4002   -2.7002   -5.1566 Si  0  0  0  0  0  4  0  0  0  0  0  0
    1.6849    3.5319   -8.7555 Si  0  0  0  0  0  4  0  0  0  0  0  0
   -2.9647   -0.1367   -7.2192 Si  0  0  0  0  0  4  0  0  0  0  0  0
    0.9670    1.6747   -9.7389 Si  0  0  0  0  0  4  0  0  0  0  0  0
   -3.0139   -1.2955   -9.1038 Si  0  0  0  0  0  4  0  0  0  0  0  0
   -1.1943    1.7246  -10.1876 Si  0  0  0  0  0  4  0  0  0  0  0  0
   -1.8564   -0.3449  -10.7257 Si  0  0  0  0  0  4  0  0  0  0  0  0
    0.9885   -0.8493   -6.0946 F   0  0  0  0  0  0  0  0  0  0  0  0
    1.5722   -2.5272   -4.0449 F   0  0  0  0  0  0  0  0  0  0  0  0
    0.0886    2.9871   -2.4423 F   0  0  0  0  0  0  0  0  0  0  0  0
   -1.5434    2.3435   -4.5126 F   0  0  0  0  0  0  0  0  0  0  0  0
    1.0113    5.5125   -6.3645 F   0  0  0  0  0  0  0  0  0  0  0  0
   -0.9423    3.6936   -6.8559 F   0  0  0  0  0  0  0  0  0  0  0  0
    1.3440    4.8327   -9.7714 F   0  0  0  0  0  0  0  0  0  0  0  0
    3.3535    3.3962   -8.5427 F   0  0  0  0  0  0  0  0  0  0  0  0
   -1.0686   -3.4545   -6.6502 F   0  0  0  0  0  0  0  0  0  0  0  0
   -1.6118   -3.8968   -4.0197 F   0  0  0  0  0  0  0  0  0  0  0  0
   -2.1174    2.3883   -8.9736 F   0  0  0  0  0  0  0  0  0  0  0  0
   -1.4164    2.6827  -11.5823 F   0  0  0  0  0  0  0  0  0  0  0  0
   -0.4977   -1.3223  -11.0446 F   0  0  0  0  0  0  0  0  0  0  0  0
   -2.7770   -0.3370  -12.1501 F   0  0  0  0  0  0  0  0  0  0  0  0
   -2.4388   -2.8665   -8.7707 F   0  0  0  0  0  0  0  0  0  0  0  0
   -4.6442   -1.4686   -9.5727 F   0  0  0  0  0  0  0  0  0  0  0  0
    2.3752    1.2854   -5.9185 F   0  0  0  0  0  0  0  0  0  0  0  0
    2.7942    3.4769   -4.3732 F   0  0  0  0  0  0  0  0  0  0  0  0
   -3.4315   -0.4867   -4.0662 F   0  0  0  0  0  0  0  0  0  0  0  0
   -4.5235   -2.4475   -5.6876 F   0  0  0  0  0  0  0  0  0  0  0  0
    1.8043    1.5298  -11.2191 F   0  0  0  0  0  0  0  0  0  0  0  0
    1.3398    0.3138   -8.8375 F   0  0  0  0  0  0  0  0  0  0  0  0
   -1.5727    0.7681   -7.0660 F   0  0  0  0  0  0  0  0  0  0  0  0
   -4.2991    0.9250   -7.2299 F   0  0  0  0  0  0  0  0  0  0  0  0
  1  2  1  0
  1  3  1  0
  2  7  1  0
  2 14  1  0
  2 15  1  0
  3  4  1  0
  3 16  1  0
  3 17  1  0
  4  5  1  0
  4 30  1  0
  4 31  1  0
  5  8  1  0
  5 18  1  0
  5 19  1  0
  6  7  1  0
  6  9  1  0
  6 32  1  0
  6 33  1  0
  7 22  1  0
  7 23  1  0
  8 10  1  0
  8 20  1  0
  8 21  1  0
  9 11  1  0
  9 36  1  0
  9 37  1  0
 10 12  1  0
 10 34  1  0
 10 35  1  0
 11 13  1  0
 11 28  1  0
 11 29  1  0
 12 13  1  0
 12 24  1  0
 12 25  1  0
 13 26  1  0
 13 27  1  0
M  CHG  1   1   1
M  RAD  1   1   2
M  END
$$$$

     RDKit          3D

 37 37  0  0  0  0  0  0  0  0999 V2000
   -0.0000   -0.0028   -3.1942 S   0  0  0  0  0  2  0  0  0  0  0  0
   -0.6342   -1.5541   -4.5687 Si  0  0  0  0  0  4  0  0  0  0  0  0
   -0.1076    1.8484   -4.2297 Si  0  0  0  0  0  4  0  0  0  0  0  0
    1.3718    3.3347   -3.4562 Si  0  0  0  0  0  4  0  0  0  0  0  0
    0.7409    5.3503   -4.1420 Si  0  0  0  0  0  4  0  0  0  0  0  0
   -0.6927   -0.6996   -8.1566 Si  0  0  0  0  0  4  0  0  0  0  0  0
    0.5517   -1.4030   -6.4689 Si  0  0  0  0  0  4  0  0  0  0  0  0
    2.0605    6.1834   -5.6967 Si  0  0  0  0  0  4  0  0  0  0  0  0
    0.4110    0.8013   -9.4232 Si  0  0  0  0  0  4  0  0  0  0  0  0
    2.8021    4.6830   -7.1279 Si  0  0  0  0  0  4  0  0  0  0  0  0
   -0.9133    2.4682  -10.0260 Si  0  0  0  0  0  4  0  0  0  0  0  0
    1.7974    4.7939   -9.1037 Si  0  0  0  0  0  4  0  0  0  0  0  0
   -0.3610    4.3842   -9.0055 Si  0  0  0  0  0  4  0  0  0  0  0  0
   -2.2699   -1.3625   -4.8849 F   0  0  0  0  0  0  0  0  0  0  0  0
   -0.3858   -3.0198   -3.8015 F   0  0  0  0  0  0  0  0  0  0  0  0
   -1.6447    2.5253   -4.0392 F   0  0  0  0  0  0  0  0  0  0  0  0
    0.1964    1.6131   -5.8624 F   0  0  0  0  0  0  0  0  0  0  0  0
   -0.8923    5.3222   -4.6248 F   0  0  0  0  0  0  0  0  0  0  0  0
    0.7977    6.3895   -2.7889 F   0  0  0  0  0  0  0  0  0  0  0  0
    1.2097    7.3754   -6.5451 F   0  0  0  0  0  0  0  0  0  0  0  0
    3.3606    6.9702   -4.9205 F   0  0  0  0  0  0  0  0  0  0  0  0
    1.1037   -2.9594   -6.8268 F   0  0  0  0  0  0  0  0  0  0  0  0
    1.8916   -0.3989   -6.2583 F   0  0  0  0  0  0  0  0  0  0  0  0
    2.1056    6.3342   -9.7520 F   0  0  0  0  0  0  0  0  0  0  0  0
    2.5864    3.6911  -10.1375 F   0  0  0  0  0  0  0  0  0  0  0  0
   -1.1780    5.6287   -9.8407 F   0  0  0  0  0  0  0  0  0  0  0  0
   -0.9735    4.3329   -7.4556 F   0  0  0  0  0  0  0  0  0  0  0  0
   -2.5063    2.0750   -9.5601 F   0  0  0  0  0  0  0  0  0  0  0  0
   -0.9330    2.7150  -11.6827 F   0  0  0  0  0  0  0  0  0  0  0  0
    2.9382    2.9576   -3.9129 F   0  0  0  0  0  0  0  0  0  0  0  0
    1.3184    3.2362   -1.7532 F   0  0  0  0  0  0  0  0  0  0  0  0
   -2.0999    0.0348   -7.5899 F   0  0  0  0  0  0  0  0  0  0  0  0
   -1.1898   -1.9877   -9.1544 F   0  0  0  0  0  0  0  0  0  0  0  0
    2.7023    3.1565   -6.4443 F   0  0  0  0  0  0  0  0  0  0  0  0
    4.4609    4.9891   -7.4009 F   0  0  0  0  0  0  0  0  0  0  0  0
    0.9206    0.0065  -10.8444 F   0  0  0  0  0  0  0  0  0  0  0  0
    1.7864    1.3213   -8.6336 F   0  0  0  0  0  0  0  0  0  0  0  0
  1  2  1  0
  1  3  1  0
  2  7  1  0
  2 14  1  0
  2 15  1  0
  3  4  1  0
  3 16  1  0
  3 17  1  0
  4  5  1  0
  4 30  1  0
  4 31  1  0
  5  8  1  0
  5 18  1  0
  5 19  1  0
  6  7  1  0
  6  9  1  0
  6 32  1  0
  6 33  1  0
  7 22  1  0
  7 23  1  0
  8 10  1  0
  8 20  1  0
  8 21  1  0
  9 11  1  0
  9 36  1  0
  9 37  1  0
 10 12  1  0
 10 34  1  0
 10 35  1  0
 11 13  1  0
 11 28  1  0
 11 29  1  0
 12 13  1  0
 12 24  1  0
 12 25  1  0
 13 26  1  0
 13 27  1  0
M  CHG  1   1   1
M  RAD  1   1   2
M  END
$$$$

     RDKit          3D

 37 37  0  0  0  0  0  0  0  0999 V2000
   -0.0000   -0.0028   -3.1942 S   0  0  0  0  0  2  0  0  0  0  0  0
   -1.6357   -1.2794   -3.7917 Si  0  0  0  0  0  4  0  0  0  0  0  0
    1.8196   -0.7374   -4.0362 Si  0  0  0  0  0  4  0  0  0  0  0  0
    2.6643    0.6259   -5.5593 Si  0  0  0  0  0  4  0  0  0  0  0  0
    1.3414    2.3784   -5.9519 Si  0  0  0  0  0  4  0  0  0  0  0  0
   -2.9252   -2.2695   -7.1027 Si  0  0  0  0  0  4  0  0  0  0  0  0
   -1.1527   -2.2076   -5.7592 Si  0  0  0  0  0  4  0  0  0  0  0  0
    1.8167    3.1727   -7.9737 Si  0  0  0  0  0  4  0  0  0  0  0  0
   -2.2959   -1.7550   -9.1899 Si  0  0  0  0  0  4  0  0  0  0  0  0
    0.0397    3.9726   -9.0131 Si  0  0  0  0  0  4  0  0  0  0  0  0
   -1.3751    0.2963   -9.2447 Si  0  0  0  0  0  4  0  0  0  0  0  0
   -1.8346    3.6858   -7.8639 Si  0  0  0  0  0  4  0  0  0  0  0  0
   -2.6960    1.6673   -8.1148 Si  0  0  0  0  0  4  0  0  0  0  0  0
   -3.0412   -0.3545   -3.9001 F   0  0  0  0  0  0  0  0  0  0  0  0
   -1.8709   -2.4643   -2.6167 F   0  0  0  0  0  0  0  0  0  0  0  0
    2.9696   -0.9432   -2.8062 F   0  0  0  0  0  0  0  0  0  0  0  0
    1.5439   -2.2782   -4.6973 F   0  0  0  0  0  0  0  0  0  0  0  0
   -0.2634    1.9570   -5.7824 F   0  0  0  0  0  0  0  0  0  0  0  0
    1.7205    3.5618   -4.7959 F   0  0  0  0  0  0  0  0  0  0  0  0
    3.0219    4.3678   -7.7866 F   0  0  0  0  0  0  0  0  0  0  0  0
    2.5348    1.9635   -8.9408 F   0  0  0  0  0  0  0  0  0  0  0  0
    0.0338   -1.2828   -6.4949 F   0  0  0  0  0  0  0  0  0  0  0  0
   -0.5169   -3.7640   -5.5425 F   0  0  0  0  0  0  0  0  0  0  0  0
   -1.5913    4.0867   -6.2348 F   0  0  0  0  0  0  0  0  0  0  0  0
   -2.9729    4.8130   -8.4552 F   0  0  0  0  0  0  0  0  0  0  0  0
   -4.1977    1.7194   -8.9242 F   0  0  0  0  0  0  0  0  0  0  0  0
   -2.9994    0.9901   -6.5991 F   0  0  0  0  0  0  0  0  0  0  0  0
    0.1502    0.1789   -8.5812 F   0  0  0  0  0  0  0  0  0  0  0  0
   -1.2129    0.7494  -10.8581 F   0  0  0  0  0  0  0  0  0  0  0  0
    2.8258   -0.2194   -7.0228 F   0  0  0  0  0  0  0  0  0  0  0  0
    4.1812    1.2024   -5.1394 F   0  0  0  0  0  0  0  0  0  0  0  0
   -4.1635   -1.2822   -6.5639 F   0  0  0  0  0  0  0  0  0  0  0  0
   -3.5006   -3.8535   -7.1311 F   0  0  0  0  0  0  0  0  0  0  0  0
   -0.1386    3.3304  -10.5593 F   0  0  0  0  0  0  0  0  0  0  0  0
    0.2644    5.6528   -9.2125 F   0  0  0  0  0  0  0  0  0  0  0  0
   -1.0586   -2.8439   -9.6087 F   0  0  0  0  0  0  0  0  0  0  0  0
   -3.5667   -1.8775  -10.2613 F   0  0  0  0  0  0  0  0  0  0  0  0
  1  2  1  0
  1  3  1  0
  2  7  1  0
  2 14  1  0
  2 15  1  0
  3  4  1  0
  3 16  1  0
  3 17  1  0
  4  5  1  0
  4 30  1  0
  4 31  1  0
  5  8  1  0
  5 18  1  0
  5 19  1  0
  6  7  1  0
  6  9  1  0
  6 32  1  0
  6 33  1  0
  7 22  1  0
  7 23  1  0
  8 10  1  0
  8 20  1  0
  8 21  1  0
  9 11  1  0
  9 36  1  0
  9 37  1  0
 10 12  1  0
 10 34  1  0
 10 35  1  0
 11 13  1  0
 11 28  1  0
 11 29  1  0
 12 13  1  0
 12 24  1  0
 12 25  1  0
 13 26  1  0
 13 27  1  0
M  CHG  1   1   1
M  RAD  1   1   2
M  END
$$$$

     RDKit          3D

 37 37  0  0  0  0  0  0  0  0999 V2000
   -0.0000   -0.0028   -3.1942 S   0  0  0  0  0  2  0  0  0  0  0  0
   -1.4978   -0.0994   -4.6513 Si  0  0  0  0  0  4  0  0  0  0  0  0
    1.9585   -0.3769   -3.8238 Si  0  0  0  0  0  4  0  0  0  0  0  0
    2.2017   -2.0887   -5.1923 Si  0  0  0  0  0  4  0  0  0  0  0  0
    3.6669   -1.5018   -6.7951 Si  0  0  0  0  0  4  0  0  0  0  0  0
   -0.7870    3.4309   -5.4279 Si  0  0  0  0  0  4  0  0  0  0  0  0
   -2.3655    1.9014   -5.1604 Si  0  0  0  0  0  4  0  0  0  0  0  0
    3.1361   -2.3591   -8.7505 Si  0  0  0  0  0  4  0  0  0  0  0  0
    0.4585    2.9258   -7.2217 Si  0  0  0  0  0  4  0  0  0  0  0  0
    1.4585   -1.2890   -9.7364 Si  0  0  0  0  0  4  0  0  0  0  0  0
   -0.6661    3.2014   -9.1075 Si  0  0  0  0  0  4  0  0  0  0  0  0
    1.9353    0.8192  -10.1868 Si  0  0  0  0  0  4  0  0  0  0  0  0
    0.0381    1.8770  -10.7276 Si  0  0  0  0  0  4  0  0  0  0  0  0
   -1.0230   -0.8072   -6.0946 F   0  0  0  0  0  0  0  0  0  0  0  0
   -2.7848   -1.0454   -4.0462 F   0  0  0  0  0  0  0  0  0  0  0  0
    2.9126   -0.6804   -2.4393 F   0  0  0  0  0  0  0  0  0  0  0  0
    2.6063    1.0447   -4.5115 F   0  0  0  0  0  0  0  0  0  0  0  0
    5.2089   -2.0882   -6.3581 F   0  0  0  0  0  0  0  0  0  0  0  0
    3.8128    0.1860   -6.8530 F   0  0  0  0  0  0  0  0  0  0  0  0
    4.4795   -2.2834   -9.7655 F   0  0  0  0  0  0  0  0  0  0  0  0
    2.6729   -3.9677   -8.5366 F   0  0  0  0  0  0  0  0  0  0  0  0
   -3.1693    1.7240   -6.6546 F   0  0  0  0  0  0  0  0  0  0  0  0
   -3.4976    2.3466   -4.0249 F   0  0  0  0  0  0  0  0  0  0  0  0
    2.7674    1.5940   -8.9729 F   0  0  0  0  0  0  0  0  0  0  0  0
    2.9195    0.8460  -11.5807 F   0  0  0  0  0  0  0  0  0  0  0  0
   -1.1885    0.7382  -11.0463 F   0  0  0  0  0  0  0  0  0  0  0  0
    0.2290    2.7765  -12.1527 F   0  0  0  0  0  0  0  0  0  0  0  0
   -2.3201    2.9487   -8.7756 F   0  0  0  0  0  0  0  0  0  0  0  0
   -0.5130    4.8332   -9.5780 F   0  0  0  0  0  0  0  0  0  0  0  0
    0.7951   -2.5885   -5.9153 F   0  0  0  0  0  0  0  0  0  0  0  0
    2.8592   -3.4313   -4.3674 F   0  0  0  0  0  0  0  0  0  0  0  0
    0.2052    3.4558   -4.0695 F   0  0  0  0  0  0  0  0  0  0  0  0
   -1.4996    4.9124   -5.6937 F   0  0  0  0  0  0  0  0  0  0  0  0
    1.1520   -2.0826  -11.2161 F   0  0  0  0  0  0  0  0  0  0  0  0
    0.0499   -1.3844   -8.8361 F   0  0  0  0  0  0  0  0  0  0  0  0
    1.0699    1.3824   -7.0665 F   0  0  0  0  0  0  0  0  0  0  0  0
    1.7632    4.0238   -7.2325 F   0  0  0  0  0  0  0  0  0  0  0  0
  1  2  1  0
  1  3  1  0
  2  7  1  0
  2 14  1  0
  2 15  1  0
  3  4  1  0
  3 16  1  0
  3 17  1  0
  4  5  1  0
  4 30  1  0
  4 31  1  0
  5  8  1  0
  5 18  1  0
  5 19  1  0
  6  7  1  0
  6  9  1  0
  6 32  1  0
  6 33  1  0
  7 22  1  0
  7 23  1  0
  8 10  1  0
  8 20  1  0
  8 21  1  0
  9 11  1  0
  9 36  1  0
  9 37  1  0
 10 12  1  0
 10 34  1  0
 10 35  1  0
 11 13  1  0
 11 28  1  0
 11 29  1  0
 12 13  1  0
 12 24  1  0
 12 25  1  0
 13 26  1  0
 13 27  1  0
M  CHG  1   1   1
M  RAD  1   1   2
M  END
$$$$

     RDKit          3D

 37 37  0  0  0  0  0  0  0  0999 V2000
   -0.0000   -0.0028   -3.1942 S   0  0  0  0  0  2  0  0  0  0  0  0
    1.5931    0.9357   -4.2301 Si  0  0  0  0  0  4  0  0  0  0  0  0
   -0.5454   -1.8505   -4.1763 Si  0  0  0  0  0  4  0  0  0  0  0  0
   -0.5708   -1.6141   -6.3723 Si  0  0  0  0  0  4  0  0  0  0  0  0
    1.4192   -2.0762   -7.2905 Si  0  0  0  0  0  4  0  0  0  0  0  0
    2.9719    4.0334   -5.4309 Si  0  0  0  0  0  4  0  0  0  0  0  0
    1.7321    3.1188   -3.7831 Si  0  0  0  0  0  4  0  0  0  0  0  0
    1.5634   -0.9117   -9.1673 Si  0  0  0  0  0  4  0  0  0  0  0  0
    1.7588    4.0415   -7.2714 Si  0  0  0  0  0  4  0  0  0  0  0  0
    3.6503   -0.4763   -9.7587 Si  0  0  0  0  0  4  0  0  0  0  0  0
    2.9275    3.7800   -9.1124 Si  0  0  0  0  0  4  0  0  0  0  0  0
    4.7634    0.6925   -8.2648 Si  0  0  0  0  0  4  0  0  0  0  0  0
    4.9051    2.8556   -8.7939 Si  0  0  0  0  0  4  0  0  0  0  0  0
    1.2708    0.8156   -5.9020 F   0  0  0  0  0  0  0  0  0  0  0  0
    3.0832    0.1766   -3.9306 F   0  0  0  0  0  0  0  0  0  0  0  0
    0.4542   -3.1057   -3.7210 F   0  0  0  0  0  0  0  0  0  0  0  0
   -2.1274   -2.2345   -3.6643 F   0  0  0  0  0  0  0  0  0  0  0  0
    1.4071   -3.7405   -7.6676 F   0  0  0  0  0  0  0  0  0  0  0  0
    2.6778   -1.8120   -6.2422 F   0  0  0  0  0  0  0  0  0  0  0  0
    0.6355    0.4912   -9.0484 F   0  0  0  0  0  0  0  0  0  0  0  0
    0.8682   -1.8468  -10.4070 F   0  0  0  0  0  0  0  0  0  0  0  0
    0.1660    3.7592   -3.8499 F   0  0  0  0  0  0  0  0  0  0  0  0
    2.4065    3.4192   -2.2886 F   0  0  0  0  0  0  0  0  0  0  0  0
    6.3690    0.1074   -8.2316 F   0  0  0  0  0  0  0  0  0  0  0  0
    4.1296    0.4600   -6.7397 F   0  0  0  0  0  0  0  0  0  0  0  0
    5.8181    3.6538   -7.6490 F   0  0  0  0  0  0  0  0  0  0  0  0
    5.7646    2.9457  -10.2678 F   0  0  0  0  0  0  0  0  0  0  0  0
    2.0796    2.8321  -10.2461 F   0  0  0  0  0  0  0  0  0  0  0  0
    3.1719    5.2875   -9.8667 F   0  0  0  0  0  0  0  0  0  0  0  0
   -1.0612   -0.0387   -6.8063 F   0  0  0  0  0  0  0  0  0  0  0  0
   -1.7120   -2.6653   -7.0332 F   0  0  0  0  0  0  0  0  0  0  0  0
    4.4096    3.2086   -5.5711 F   0  0  0  0  0  0  0  0  0  0  0  0
    3.3123    5.6263   -4.9553 F   0  0  0  0  0  0  0  0  0  0  0  0
    4.4231   -1.9574  -10.0737 F   0  0  0  0  0  0  0  0  0  0  0  0
    3.6106    0.3662  -11.2198 F   0  0  0  0  0  0  0  0  0  0  0  0
    0.9513    5.5431   -7.3582 F   0  0  0  0  0  0  0  0  0  0  0  0
    0.5238    2.8667   -7.2196 F   0  0  0  0  0  0  0  0  0  0  0  0
  1  2  1  0
  1  3  1  0
  2  7  1  0
  2 14  1  0
  2 15  1  0
  3  4  1  0
  3 16  1  0
  3 17  1  0
  4  5  1  0
  4 30  1  0
  4 31  1  0
  5  8  1  0
  5 18  1  0
  5 19  1  0
  6  7  1  0
  6  9  1  0
  6 32  1  0
  6 33  1  0
  7 22  1  0
  7 23  1  0
  8 10  1  0
  8 20  1  0
  8 21  1  0
  9 11  1  0
  9 36  1  0
  9 37  1  0
 10 12  1  0
 10 34  1  0
 10 35  1  0
 11 13  1  0
 11 28  1  0
 11 29  1  0
 12 13  1  0
 12 24  1  0
 12 25  1  0
 13 26  1  0
 13 27  1  0
M  CHG  1   1   1
M  RAD  1   1   2
M  END
$$$$

     RDKit          3D

 37 37  0  0  0  0  0  0  0  0999 V2000
   -0.0000   -0.0028   -3.1942 S   0  0  0  0  0  2  0  0  0  0  0  0
   -0.1236   -1.4998   -4.6502 Si  0  0  0  0  0  4  0  0  0  0  0  0
    0.6548    1.8800   -3.8257 Si  0  0  0  0  0  4  0  0  0  0  0  0
    2.3826    1.8704   -5.1957 Si  0  0  0  0  0  4  0  0  0  0  0  0
    2.0139    3.4042   -6.7992 Si  0  0  0  0  0  4  0  0  0  0  0  0
   -3.5135   -0.2831   -5.4247 Si  0  0  0  0  0  4  0  0  0  0  0  0
   -2.2299   -2.0673   -5.1571 Si  0  0  0  0  0  4  0  0  0  0  0  0
    2.7832    2.7529   -8.7548 Si  0  0  0  0  0  4  0  0  0  0  0  0
   -2.8340    0.8743   -7.2200 Si  0  0  0  0  0  4  0  0  0  0  0  0
    1.4795    1.2482   -9.7385 Si  0  0  0  0  0  4  0  0  0  0  0  0
   -3.2719   -0.1995   -9.1047 Si  0  0  0  0  0  4  0  0  0  0  0  0
   -0.5373    2.0265  -10.1878 Si  0  0  0  0  0  4  0  0  0  0  0  0
   -1.8605    0.3032  -10.7262 Si  0  0  0  0  0  4  0  0  0  0  0  0
    0.6446   -1.1341   -6.0943 F   0  0  0  0  0  0  0  0  0  0  0  0
    0.6254   -2.9103   -4.0446 F   0  0  0  0  0  0  0  0  0  0  0  0
    1.0950    2.7807   -2.4421 F   0  0  0  0  0  0  0  0  0  0  0  0
   -0.6579    2.7273   -4.5129 F   0  0  0  0  0  0  0  0  0  0  0  0
    2.8190    4.8447   -6.3639 F   0  0  0  0  0  0  0  0  0  0  0  0
    0.3653    3.7942   -6.8560 F   0  0  0  0  0  0  0  0  0  0  0  0
    2.9030    4.0923   -9.7708 F   0  0  0  0  0  0  0  0  0  0  0  0
    4.3074    2.0605   -8.5416 F   0  0  0  0  0  0  0  0  0  0  0  0
   -2.1727   -2.8894   -6.6507 F   0  0  0  0  0  0  0  0  0  0  0  0
   -2.8343   -3.1216   -4.0203 F   0  0  0  0  0  0  0  0  0  0  0  0
   -1.1817    2.9635   -8.9741 F   0  0  0  0  0  0  0  0  0  0  0  0
   -0.4216    3.0032  -11.5825 F   0  0  0  0  0  0  0  0  0  0  0  0
   -0.9126   -1.0764  -11.0448 F   0  0  0  0  0  0  0  0  0  0  0  0
   -2.7237    0.6220  -12.1509 F   0  0  0  0  0  0  0  0  0  0  0  0
   -3.2625   -1.8724   -8.7715 F   0  0  0  0  0  0  0  0  0  0  0  0
   -4.8645    0.1892   -9.5741 F   0  0  0  0  0  0  0  0  0  0  0  0
    2.6717    0.4054   -5.9178 F   0  0  0  0  0  0  0  0  0  0  0  0
    3.8073    2.3259   -4.3722 F   0  0  0  0  0  0  0  0  0  0  0  0
   -3.3926    0.7031   -4.0672 F   0  0  0  0  0  0  0  0  0  0  0  0
   -5.0832   -0.7726   -5.6890 F   0  0  0  0  0  0  0  0  0  0  0  0
    2.2187    0.8284  -11.2185 F   0  0  0  0  0  0  0  0  0  0  0  0
    1.3695   -0.1586   -8.8371 F   0  0  0  0  0  0  0  0  0  0  0  0
   -1.2179    1.2547   -7.0664 F   0  0  0  0  0  0  0  0  0  0  0  0
   -3.7303    2.3249   -7.2311 F   0  0  0  0  0  0  0  0  0  0  0  0
  1  2  1  0
  1  3  1  0
  2  7  1  0
  2 14  1  0
  2 15  1  0
  3  4  1  0
  3 16  1  0
  3 17  1  0
  4  5  1  0
  4 30  1  0
  4 31  1  0
  5  8  1  0
  5 18  1  0
  5 19  1  0
  6  7  1  0
  6  9  1  0
  6 32  1  0
  6 33  1  0
  7 22  1  0
  7 23  1  0
  8 10  1  0
  8 20  1  0
  8 21  1  0
  9 11  1  0
  9 36  1  0
  9 37  1  0
 10 12  1  0
 10 34  1  0
 10 35  1  0
 11 13  1  0
 11 28  1  0
 11 29  1  0
 12 13  1  0
 12 24  1  0
 12 25  1  0
 13 26  1  0
 13 27  1  0
M  CHG  1   1   1
M  RAD  1   1   2
M  END
$$$$
