
     RDKit          3D

 37 37  0  0  0  0  0  0  0  0999 V2000
    0.0046   -0.0180   -3.1935 S   0  0  0  0  0  2  0  0  0  0  0  0
    0.0631   -2.1722   -3.3948 Si  0  0  0  0  0  4  0  0  0  0  0  0
   -1.0574    0.7425   -4.9183 Si  0  0  0  0  0  4  0  0  0  0  0  0
   -1.4081    2.9135   -4.7951 Si  0  0  0  0  0  4  0  0  0  0  0  0
   -3.2782    3.5252   -5.8291 Si  0  0  0  0  0  4  0  0  0  0  0  0
   -2.0333   -4.9605   -4.6573 Si  0  0  0  0  0  4  0  0  0  0  0  0
   -1.7942   -2.7830   -4.4456 Si  0  0  0  0  0  4  0  0  0  0  0  0
   -4.7083    1.8209   -6.0409 Si  0  0  0  0  0  4  0  0  0  0  0  0
   -4.0213   -5.2717   -5.6873 Si  0  0  0  0  0  4  0  0  0  0  0  0
   -4.1909    0.5128   -7.7487 Si  0  0  0  0  0  4  0  0  0  0  0  0
   -3.8512   -5.0718   -7.8651 Si  0  0  0  0  0  4  0  0  0  0  0  0
   -5.0104   -1.5655   -7.4730 Si  0  0  0  0  0  4  0  0  0  0  0  0
   -3.9039   -3.0430   -8.6611 Si  0  0  0  0  0  4  0  0  0  0  0  0
    1.3894   -2.6123   -4.3005 F   0  0  0  0  0  0  0  0  0  0  0  0
    0.1115   -2.8644   -1.8409 F   0  0  0  0  0  0  0  0  0  0  0  0
   -2.5603   -0.0276   -4.9226 F   0  0  0  0  0  0  0  0  0  0  0  0
   -0.1411    0.3290   -6.2681 F   0  0  0  0  0  0  0  0  0  0  0  0
   -2.9727    4.1526   -7.3622 F   0  0  0  0  0  0  0  0  0  0  0  0
   -4.0264    4.7075   -4.8542 F   0  0  0  0  0  0  0  0  0  0  0  0
   -4.8832    0.9728   -4.5992 F   0  0  0  0  0  0  0  0  0  0  0  0
   -6.2351    2.5152   -6.3683 F   0  0  0  0  0  0  0  0  0  0  0  0
   -1.7120   -2.1653   -6.0233 F   0  0  0  0  0  0  0  0  0  0  0  0
   -3.0890   -2.1374   -3.5918 F   0  0  0  0  0  0  0  0  0  0  0  0
   -6.6281   -1.5390   -8.0213 F   0  0  0  0  0  0  0  0  0  0  0  0
   -5.0514   -1.8753   -5.8455 F   0  0  0  0  0  0  0  0  0  0  0  0
   -4.6096   -3.0854  -10.2193 F   0  0  0  0  0  0  0  0  0  0  0  0
   -2.3144   -2.4806   -8.9453 F   0  0  0  0  0  0  0  0  0  0  0  0
   -2.3907   -5.8183   -8.3453 F   0  0  0  0  0  0  0  0  0  0  0  0
   -5.0858   -6.0077   -8.5853 F   0  0  0  0  0  0  0  0  0  0  0  0
   -1.3905    3.4033   -3.1819 F   0  0  0  0  0  0  0  0  0  0  0  0
   -0.1122    3.7122   -5.5643 F   0  0  0  0  0  0  0  0  0  0  0  0
   -2.0072   -5.7670   -3.1938 F   0  0  0  0  0  0  0  0  0  0  0  0
   -0.8157   -5.5323   -5.7024 F   0  0  0  0  0  0  0  0  0  0  0  0
   -4.9382    1.1356   -9.1511 F   0  0  0  0  0  0  0  0  0  0  0  0
   -2.5494    0.4847   -8.0500 F   0  0  0  0  0  0  0  0  0  0  0  0
   -4.4578   -6.8858   -5.3296 F   0  0  0  0  0  0  0  0  0  0  0  0
   -5.1953   -4.2995   -5.0031 F   0  0  0  0  0  0  0  0  0  0  0  0
  1  2  1  0
  1  3  1  0
  2  7  1  0
  2 14  1  0
  2 15  1  0
  3  4  1  0
  3 16  1  0
  3 17  1  0
  4  5  1  0
  4 30  1  0
  4 31  1  0
  5  8  1  0
  5 18  1  0
  5 19  1  0
  6  7  1  0
  6  9  1  0
  6 32  1  0
  6 33  1  0
  7 22  1  0
  7 23  1  0
  8 10  1  0
  8 20  1  0
  8 21  1  0
  9 11  1  0
  9 36  1  0
  9 37  1  0
 10 12  1  0
 10 34  1  0
 10 35  1  0
 11 13  1  0
 11 28  1  0
 11 29  1  0
 12 13  1  0
 12 24  1  0
 12 25  1  0
 13 26  1  0
 13 27  1  0
M  CHG  1   1   1
M  RAD  1   1   2
M  END
$$$$

     RDKit          3D

 37 37  0  0  0  0  0  0  0  0999 V2000
    0.0046   -0.0180   -3.1935 S   0  0  0  0  0  2  0  0  0  0  0  0
    2.1553   -0.1600   -3.3917 Si  0  0  0  0  0  4  0  0  0  0  0  0
   -0.8489   -1.0074   -4.9180 Si  0  0  0  0  0  4  0  0  0  0  0  0
   -3.0432   -1.1549   -4.7975 Si  0  0  0  0  0  4  0  0  0  0  0  0
   -3.8244   -2.9617   -5.8299 Si  0  0  0  0  0  4  0  0  0  0  0  0
    4.7386   -2.5080   -4.6473 Si  0  0  0  0  0  4  0  0  0  0  0  0
    2.5924   -2.0675   -4.4391 Si  0  0  0  0  0  4  0  0  0  0  0  0
   -2.2600   -4.5441   -6.0373 Si  0  0  0  0  0  4  0  0  0  0  0  0
    4.8654   -4.5177   -5.6743 Si  0  0  0  0  0  4  0  0  0  0  0  0
   -0.9072   -4.1528   -7.7439 Si  0  0  0  0  0  4  0  0  0  0  0  0
    4.6850   -4.3330   -7.8526 Si  0  0  0  0  0  4  0  0  0  0  0  0
    1.0857   -5.1612   -7.4640 Si  0  0  0  0  0  4  0  0  0  0  0  0
    2.6611   -4.1984   -8.6515 Si  0  0  0  0  0  4  0  0  0  0  0  0
    2.7177    1.1184   -4.2985 F   0  0  0  0  0  0  0  0  0  0  0  0
    2.8469   -0.1738   -1.8369 F   0  0  0  0  0  0  0  0  0  0  0  0
   -0.2215   -2.5753   -4.9192 F   0  0  0  0  0  0  0  0  0  0  0  0
   -0.3503   -0.1354   -6.2684 F   0  0  0  0  0  0  0  0  0  0  0  0
   -4.4187   -2.6015   -7.3643 F   0  0  0  0  0  0  0  0  0  0  0  0
   -5.0723   -3.5955   -4.8558 F   0  0  0  0  0  0  0  0  0  0  0  0
   -1.4337   -4.7948   -4.5941 F   0  0  0  0  0  0  0  0  0  0  0  0
   -3.0925   -6.0003   -6.3637 F   0  0  0  0  0  0  0  0  0  0  0  0
    1.9871   -1.9307   -6.0179 F   0  0  0  0  0  0  0  0  0  0  0  0
    1.8283   -3.2955   -3.5846 F   0  0  0  0  0  0  0  0  0  0  0  0
    0.9099   -6.7703   -8.0103 F   0  0  0  0  0  0  0  0  0  0  0  0
    1.3882   -5.2284   -5.8360 F   0  0  0  0  0  0  0  0  0  0  0  0
    2.6399   -4.9072  -10.2086 F   0  0  0  0  0  0  0  0  0  0  0  0
    2.2490   -2.5639   -8.9386 F   0  0  0  0  0  0  0  0  0  0  0  0
    5.5645   -2.9488   -8.3337 F   0  0  0  0  0  0  0  0  0  0  0  0
    5.5032   -5.6502   -8.5698 F   0  0  0  0  0  0  0  0  0  0  0  0
   -3.5314   -1.0895   -3.1850 F   0  0  0  0  0  0  0  0  0  0  0  0
   -3.7172    0.2084   -5.5696 F   0  0  0  0  0  0  0  0  0  0  0  0
    5.5421   -2.5547   -3.1827 F   0  0  0  0  0  0  0  0  0  0  0  0
    5.4224   -1.3502   -5.6932 F   0  0  0  0  0  0  0  0  0  0  0  0
   -1.5948   -4.8412   -9.1462 F   0  0  0  0  0  0  0  0  0  0  0  0
   -0.7265   -2.5214   -8.0473 F   0  0  0  0  0  0  0  0  0  0  0  0
    6.4314   -5.1016   -5.3136 F   0  0  0  0  0  0  0  0  0  0  0  0
    3.7875   -5.5955   -4.9899 F   0  0  0  0  0  0  0  0  0  0  0  0
  1  2  1  0
  1  3  1  0
  2  7  1  0
  2 14  1  0
  2 15  1  0
  3  4  1  0
  3 16  1  0
  3 17  1  0
  4  5  1  0
  4 30  1  0
  4 31  1  0
  5  8  1  0
  5 18  1  0
  5 19  1  0
  6  7  1  0
  6  9  1  0
  6 32  1  0
  6 33  1  0
  7 22  1  0
  7 23  1  0
  8 10  1  0
  8 20  1  0
  8 21  1  0
  9 11  1  0
  9 36  1  0
  9 37  1  0
 10 12  1  0
 10 34  1  0
 10 35  1  0
 11 13  1  0
 11 28  1  0
 11 29  1  0
 12 13  1  0
 12 24  1  0
 12 25  1  0
 13 26  1  0
 13 27  1  0
M  CHG  1   1   1
M  RAD  1   1   2
M  END
$$$$

     RDKit          3D

 37 37  0  0  0  0  0  0  0  0999 V2000
    0.0046   -0.0180   -3.1935 S   0  0  0  0  0  2  0  0  0  0  0  0
    1.2672   -0.0919   -4.9548 Si  0  0  0  0  0  4  0  0  0  0  0  0
   -1.6991    1.1764   -3.6019 Si  0  0  0  0  0  4  0  0  0  0  0  0
   -3.6083    0.0235   -3.3662 Si  0  0  0  0  0  4  0  0  0  0  0  0
   -5.0104    0.7299   -4.9106 Si  0  0  0  0  0  4  0  0  0  0  0  0
    1.0761   -2.0753   -8.0595 Si  0  0  0  0  0  4  0  0  0  0  0  0
    1.0543   -2.1102   -5.8396 Si  0  0  0  0  0  4  0  0  0  0  0  0
   -6.3458   -0.8153   -5.7035 Si  0  0  0  0  0  4  0  0  0  0  0  0
   -0.5129   -0.8220   -8.9285 Si  0  0  0  0  0  4  0  0  0  0  0  0
   -5.4486   -2.8278   -5.7802 Si  0  0  0  0  0  4  0  0  0  0  0  0
   -1.9287   -2.0725  -10.1001 Si  0  0  0  0  0  4  0  0  0  0  0  0
   -3.5285   -2.7347   -6.9031 Si  0  0  0  0  0  4  0  0  0  0  0  0
   -3.8543   -2.3817   -9.0693 Si  0  0  0  0  0  4  0  0  0  0  0  0
    0.8021    1.1336   -5.9922 F   0  0  0  0  0  0  0  0  0  0  0  0
    2.8851    0.2015   -4.4993 F   0  0  0  0  0  0  0  0  0  0  0  0
   -1.6806    2.5043   -2.5477 F   0  0  0  0  0  0  0  0  0  0  0  0
   -1.6070    1.8106   -5.1736 F   0  0  0  0  0  0  0  0  0  0  0  0
   -5.9611    1.9862   -4.2545 F   0  0  0  0  0  0  0  0  0  0  0  0
   -4.1631    1.4365   -6.2122 F   0  0  0  0  0  0  0  0  0  0  0  0
   -6.7995   -0.3806   -7.2906 F   0  0  0  0  0  0  0  0  0  0  0  0
   -7.7890   -0.8817   -4.8129 F   0  0  0  0  0  0  0  0  0  0  0  0
   -0.3014   -2.9184   -5.2337 F   0  0  0  0  0  0  0  0  0  0  0  0
    2.4070   -3.0292   -5.3488 F   0  0  0  0  0  0  0  0  0  0  0  0
   -2.6373   -4.1436   -6.7216 F   0  0  0  0  0  0  0  0  0  0  0  0
   -2.6636   -1.4010   -6.2915 F   0  0  0  0  0  0  0  0  0  0  0  0
   -4.5973   -3.7608   -9.7473 F   0  0  0  0  0  0  0  0  0  0  0  0
   -4.9392   -1.1000   -9.3349 F   0  0  0  0  0  0  0  0  0  0  0  0
   -2.2365   -1.4071  -11.6283 F   0  0  0  0  0  0  0  0  0  0  0  0
   -1.2157   -3.5847  -10.3693 F   0  0  0  0  0  0  0  0  0  0  0  0
   -3.3554   -1.6192   -3.3794 F   0  0  0  0  0  0  0  0  0  0  0  0
   -4.2306    0.4311   -1.8303 F   0  0  0  0  0  0  0  0  0  0  0  0
    2.6259   -1.5652   -8.5495 F   0  0  0  0  0  0  0  0  0  0  0  0
    0.9068   -3.6651   -8.6015 F   0  0  0  0  0  0  0  0  0  0  0  0
   -5.1065   -3.3459   -4.2129 F   0  0  0  0  0  0  0  0  0  0  0  0
   -6.5337   -3.9030   -6.4584 F   0  0  0  0  0  0  0  0  0  0  0  0
    0.2182    0.2543  -10.0373 F   0  0  0  0  0  0  0  0  0  0  0  0
   -1.2968    0.1399   -7.7948 F   0  0  0  0  0  0  0  0  0  0  0  0
  1  2  1  0
  1  3  1  0
  2  7  1  0
  2 14  1  0
  2 15  1  0
  3  4  1  0
  3 16  1  0
  3 17  1  0
  4  5  1  0
  4 30  1  0
  4 31  1  0
  5  8  1  0
  5 18  1  0
  5 19  1  0
  6  7  1  0
  6  9  1  0
  6 32  1  0
  6 33  1  0
  7 22  1  0
  7 23  1  0
  8 10  1  0
  8 20  1  0
  8 21  1  0
  9 11  1  0
  9 36  1  0
  9 37  1  0
 10 12  1  0
 10 34  1  0
 10 35  1  0
 11 13  1  0
 11 28  1  0
 11 29  1  0
 12 13  1  0
 12 24  1  0
 12 25  1  0
 13 26  1  0
 13 27  1  0
M  CHG  1   1   1
M  RAD  1   1   2
M  END
$$$$

     RDKit          3D

 37 37  0  0  0  0  0  0  0  0999 V2000
    0.0046   -0.0180   -3.1935 S   0  0  0  0  0  2  0  0  0  0  0  0
   -2.1476    0.0859   -3.3980 Si  0  0  0  0  0  4  0  0  0  0  0  0
    0.8456    0.9863   -4.9155 Si  0  0  0  0  0  4  0  0  0  0  0  0
    3.0366    1.1726   -4.7886 Si  0  0  0  0  0  4  0  0  0  0  0  0
    3.7888    2.9930   -5.8188 Si  0  0  0  0  0  4  0  0  0  0  0  0
   -4.7683    2.3880   -4.6613 Si  0  0  0  0  0  4  0  0  0  0  0  0
   -2.6153    1.9855   -4.4468 Si  0  0  0  0  0  4  0  0  0  0  0  0
    2.1972    4.5475   -6.0307 Si  0  0  0  0  0  4  0  0  0  0  0  0
   -4.9276    4.3952   -5.6886 Si  0  0  0  0  0  4  0  0  0  0  0  0
    0.8566    4.1324   -7.7413 Si  0  0  0  0  0  4  0  0  0  0  0  0
   -4.7375    4.2137   -7.8664 Si  0  0  0  0  0  4  0  0  0  0  0  0
   -1.1546    5.1054   -7.4673 Si  0  0  0  0  0  4  0  0  0  0  0  0
   -2.7093    4.1149   -8.6594 Si  0  0  0  0  0  4  0  0  0  0  0  0
   -2.6847   -1.2021   -4.3065 F   0  0  0  0  0  0  0  0  0  0  0  0
   -2.8439    0.0875   -1.8452 F   0  0  0  0  0  0  0  0  0  0  0  0
    0.1906    2.5429   -4.9186 F   0  0  0  0  0  0  0  0  0  0  0  0
    0.3664    0.1057   -6.2673 F   0  0  0  0  0  0  0  0  0  0  0  0
    4.3938    2.6434   -7.3514 F   0  0  0  0  0  0  0  0  0  0  0  0
    5.0224    3.6487   -4.8410 F   0  0  0  0  0  0  0  0  0  0  0  0
    1.3624    4.7836   -4.5900 F   0  0  0  0  0  0  0  0  0  0  0  0
    3.0048    6.0182   -6.3548 F   0  0  0  0  0  0  0  0  0  0  0  0
   -2.0030    1.8594   -6.0237 F   0  0  0  0  0  0  0  0  0  0  0  0
   -1.8755    3.2268   -3.5900 F   0  0  0  0  0  0  0  0  0  0  0  0
   -1.0057    6.7174   -8.0131 F   0  0  0  0  0  0  0  0  0  0  0  0
   -1.4631    5.1672   -5.8402 F   0  0  0  0  0  0  0  0  0  0  0  0
   -2.6961    4.8241  -10.2165 F   0  0  0  0  0  0  0  0  0  0  0  0
   -2.2675    2.4880   -8.9453 F   0  0  0  0  0  0  0  0  0  0  0  0
   -5.5910    2.8142   -8.3500 F   0  0  0  0  0  0  0  0  0  0  0  0
   -5.5768    5.5163   -8.5860 F   0  0  0  0  0  0  0  0  0  0  0  0
    3.5211    1.1159   -3.1747 F   0  0  0  0  0  0  0  0  0  0  0  0
    3.7368   -0.1785   -5.5587 F   0  0  0  0  0  0  0  0  0  0  0  0
   -5.5768    2.4205   -3.1990 F   0  0  0  0  0  0  0  0  0  0  0  0
   -5.4285    1.2183   -5.7091 F   0  0  0  0  0  0  0  0  0  0  0  0
    1.5361    4.8328   -9.1416 F   0  0  0  0  0  0  0  0  0  0  0  0
    0.7056    2.4980   -8.0452 F   0  0  0  0  0  0  0  0  0  0  0  0
   -6.5048    4.9513   -5.3326 F   0  0  0  0  0  0  0  0  0  0  0  0
   -3.8709    5.4919   -5.0011 F   0  0  0  0  0  0  0  0  0  0  0  0
  1  2  1  0
  1  3  1  0
  2  7  1  0
  2 14  1  0
  2 15  1  0
  3  4  1  0
  3 16  1  0
  3 17  1  0
  4  5  1  0
  4 30  1  0
  4 31  1  0
  5  8  1  0
  5 18  1  0
  5 19  1  0
  6  7  1  0
  6  9  1  0
  6 32  1  0
  6 33  1  0
  7 22  1  0
  7 23  1  0
  8 10  1  0
  8 20  1  0
  8 21  1  0
  9 11  1  0
  9 36  1  0
  9 37  1  0
 10 12  1  0
 10 34  1  0
 10 35  1  0
 11 13  1  0
 11 28  1  0
 11 29  1  0
 12 13  1  0
 12 24  1  0
 12 25  1  0
 13 26  1  0
 13 27  1  0
M  CHG  1   1   1
M  RAD  1   1   2
M  END
$$$$

     RDKit          3D

 37 37  0  0  0  0  0  0  0  0999 V2000
    0.0046   -0.0180   -3.1935 S   0  0  0  0  0  2  0  0  0  0  0  0
   -1.2539    0.0336   -4.9585 Si  0  0  0  0  0  4  0  0  0  0  0  0
    1.7304   -1.1821   -3.5968 Si  0  0  0  0  0  4  0  0  0  0  0  0
    3.6183    0.0044   -3.3556 Si  0  0  0  0  0  4  0  0  0  0  0  0
    5.0371   -0.6771   -4.8959 Si  0  0  0  0  0  4  0  0  0  0  0  0
   -1.0888    2.0202   -8.0627 Si  0  0  0  0  0  4  0  0  0  0  0  0
   -1.0741    2.0554   -5.8427 Si  0  0  0  0  0  4  0  0  0  0  0  0
    6.3473    0.8915   -5.6848 Si  0  0  0  0  0  4  0  0  0  0  0  0
    0.5247    0.7951   -8.9270 Si  0  0  0  0  0  4  0  0  0  0  0  0
    5.4149    2.8878   -5.7643 Si  0  0  0  0  0  4  0  0  0  0  0  0
    1.9216    2.0705  -10.0945 Si  0  0  0  0  0  4  0  0  0  0  0  0
    3.5000    2.7608   -6.8928 Si  0  0  0  0  0  4  0  0  0  0  0  0
    3.8384    2.4137   -9.0581 Si  0  0  0  0  0  4  0  0  0  0  0  0
   -0.7642   -1.1834   -5.9944 F   0  0  0  0  0  0  0  0  0  0  0  0
   -2.8676   -0.2883   -4.5077 F   0  0  0  0  0  0  0  0  0  0  0  0
    1.7323   -2.5101   -2.5427 F   0  0  0  0  0  0  0  0  0  0  0  0
    1.6541   -1.8178   -5.1688 F   0  0  0  0  0  0  0  0  0  0  0  0
    6.0079   -1.9165   -4.2369 F   0  0  0  0  0  0  0  0  0  0  0  0
    4.2063   -1.3986   -6.1999 F   0  0  0  0  0  0  0  0  0  0  0  0
    6.8133    0.4649   -7.2707 F   0  0  0  0  0  0  0  0  0  0  0  0
    7.7865    0.9833   -4.7900 F   0  0  0  0  0  0  0  0  0  0  0  0
    0.2653    2.8874   -5.2329 F   0  0  0  0  0  0  0  0  0  0  0  0
   -2.4443    2.9503   -5.3560 F   0  0  0  0  0  0  0  0  0  0  0  0
    2.5836    4.1538   -6.7140 F   0  0  0  0  0  0  0  0  0  0  0  0
    2.6571    1.4120   -6.2837 F   0  0  0  0  0  0  0  0  0  0  0  0
    4.5589    3.8057   -9.7339 F   0  0  0  0  0  0  0  0  0  0  0  0
    4.9466    1.1514   -9.3204 F   0  0  0  0  0  0  0  0  0  0  0  0
    2.2455    1.4107  -11.6217 F   0  0  0  0  0  0  0  0  0  0  0  0
    1.1827    3.5699  -10.3658 F   0  0  0  0  0  0  0  0  0  0  0  0
    3.3364    1.6423   -3.3696 F   0  0  0  0  0  0  0  0  0  0  0  0
    4.2431   -0.3923   -1.8179 F   0  0  0  0  0  0  0  0  0  0  0  0
   -2.6279    1.4828   -8.5572 F   0  0  0  0  0  0  0  0  0  0  0  0
   -0.9460    3.6127   -8.6042 F   0  0  0  0  0  0  0  0  0  0  0  0
    5.0591    3.3998   -4.1980 F   0  0  0  0  0  0  0  0  0  0  0  0
    6.4828    3.9820   -6.4393 F   0  0  0  0  0  0  0  0  0  0  0  0
   -0.1840   -0.2938  -10.0379 F   0  0  0  0  0  0  0  0  0  0  0  0
    1.3221   -0.1528   -7.7910 F   0  0  0  0  0  0  0  0  0  0  0  0
  1  2  1  0
  1  3  1  0
  2  7  1  0
  2 14  1  0
  2 15  1  0
  3  4  1  0
  3 16  1  0
  3 17  1  0
  4  5  1  0
  4 30  1  0
  4 31  1  0
  5  8  1  0
  5 18  1  0
  5 19  1  0
  6  7  1  0
  6  9  1  0
  6 32  1  0
  6 33  1  0
  7 22  1  0
  7 23  1  0
  8 10  1  0
  8 20  1  0
  8 21  1  0
  9 11  1  0
  9 36  1  0
  9 37  1  0
 10 12  1  0
 10 34  1  0
 10 35  1  0
 11 13  1  0
 11 28  1  0
 11 29  1  0
 12 13  1  0
 12 24  1  0
 12 25  1  0
 13 26  1  0
 13 27  1  0
M  CHG  1   1   1
M  RAD  1   1   2
M  END
$$$$

     RDKit          3D

 37 37  0  0  0  0  0  0  0  0999 V2000
    0.0046   -0.0180   -3.1935 S   0  0  0  0  0  2  0  0  0  0  0  0
   -0.1276   -2.1689   -3.3950 Si  0  0  0  0  0  4  0  0  0  0  0  0
   -0.9859    0.8337   -4.9182 Si  0  0  0  0  0  4  0  0  0  0  0  0
   -1.1432    3.0272   -4.7947 Si  0  0  0  0  0  4  0  0  0  0  0  0
   -2.9519    3.8020   -5.8287 Si  0  0  0  0  0  4  0  0  0  0  0  0
   -2.4625   -4.7607   -4.6579 Si  0  0  0  0  0  4  0  0  0  0  0  0
   -2.0318   -2.6129   -4.4459 Si  0  0  0  0  0  4  0  0  0  0  0  0
   -4.5271    2.2310   -6.0406 Si  0  0  0  0  0  4  0  0  0  0  0  0
   -4.4702   -4.8947   -5.6880 Si  0  0  0  0  0  4  0  0  0  0  0  0
   -4.1275    0.8824   -7.7486 Si  0  0  0  0  0  4  0  0  0  0  0  0
   -4.2831   -4.7103   -7.8657 Si  0  0  0  0  0  4  0  0  0  0  0  0
   -5.1276   -1.1153   -7.4731 Si  0  0  0  0  0  4  0  0  0  0  0  0
   -4.1562   -2.6847   -8.6615 Si  0  0  0  0  0  4  0  0  0  0  0  0
    1.1544   -2.7244   -4.3008 F   0  0  0  0  0  0  0  0  0  0  0  0
   -0.1407   -2.8629   -1.8412 F   0  0  0  0  0  0  0  0  0  0  0  0
   -2.5511    0.1995   -4.9226 F   0  0  0  0  0  0  0  0  0  0  0  0
   -0.1098    0.3409   -6.2680 F   0  0  0  0  0  0  0  0  0  0  0  0
   -2.5921    4.4001   -7.3616 F   0  0  0  0  0  0  0  0  0  0  0  0
   -3.5926    5.0457   -4.8536 F   0  0  0  0  0  0  0  0  0  0  0  0
   -4.7764    1.4015   -4.5990 F   0  0  0  0  0  0  0  0  0  0  0  0
   -5.9865    3.0576   -6.3679 F   0  0  0  0  0  0  0  0  0  0  0  0
   -1.8952   -2.0047   -6.0236 F   0  0  0  0  0  0  0  0  0  0  0  0
   -3.2643   -1.8554   -3.5920 F   0  0  0  0  0  0  0  0  0  0  0  0
   -6.7366   -0.9457   -8.0215 F   0  0  0  0  0  0  0  0  0  0  0  0
   -5.1958   -1.4205   -5.8457 F   0  0  0  0  0  0  0  0  0  0  0  0
   -4.8628   -2.6643  -10.2196 F   0  0  0  0  0  0  0  0  0  0  0  0
   -2.5231   -2.2650   -8.9456 F   0  0  0  0  0  0  0  0  0  0  0  0
   -2.8943   -5.5830   -8.3461 F   0  0  0  0  0  0  0  0  0  0  0  0
   -5.5956   -5.5332   -8.5860 F   0  0  0  0  0  0  0  0  0  0  0  0
   -1.0823    3.5133   -3.1814 F   0  0  0  0  0  0  0  0  0  0  0  0
    0.2182    3.7082   -5.5638 F   0  0  0  0  0  0  0  0  0  0  0  0
   -2.5079   -5.5665   -3.1945 F   0  0  0  0  0  0  0  0  0  0  0  0
   -1.3003   -5.4378   -5.7031 F   0  0  0  0  0  0  0  0  0  0  0  0
   -4.8168    1.5691   -9.1509 F   0  0  0  0  0  0  0  0  0  0  0  0
   -2.4948    0.7093   -8.0499 F   0  0  0  0  0  0  0  0  0  0  0  0
   -5.0478   -6.4638   -5.3305 F   0  0  0  0  0  0  0  0  0  0  0  0
   -5.5537   -3.8225   -5.0036 F   0  0  0  0  0  0  0  0  0  0  0  0
  1  2  1  0
  1  3  1  0
  2  7  1  0
  2 14  1  0
  2 15  1  0
  3  4  1  0
  3 16  1  0
  3 17  1  0
  4  5  1  0
  4 30  1  0
  4 31  1  0
  5  8  1  0
  5 18  1  0
  5 19  1  0
  6  7  1  0
  6  9  1  0
  6 32  1  0
  6 33  1  0
  7 22  1  0
  7 23  1  0
  8 10  1  0
  8 20  1  0
  8 21  1  0
  9 11  1  0
  9 36  1  0
  9 37  1  0
 10 12  1  0
 10 34  1  0
 10 35  1  0
 11 13  1  0
 11 28  1  0
 11 29  1  0
 12 13  1  0
 12 24  1  0
 12 25  1  0
 13 26  1  0
 13 27  1  0
M  CHG  1   1   1
M  RAD  1   1   2
M  END
$$$$

     RDKit          3D

 37 37  0  0  0  0  0  0  0  0999 V2000
    0.0046   -0.0180   -3.1935 S   0  0  0  0  0  2  0  0  0  0  0  0
   -0.0612   -1.2783   -4.9568 Si  0  0  0  0  0  4  0  0  0  0  0  0
    1.1922    1.6915   -3.5976 Si  0  0  0  0  0  4  0  0  0  0  0  0
    0.0306    3.5954   -3.3609 Si  0  0  0  0  0  4  0  0  0  0  0  0
    0.7331    5.0028   -4.9022 Si  0  0  0  0  0  4  0  0  0  0  0  0
   -2.0409   -1.0913   -8.0641 Si  0  0  0  0  0  4  0  0  0  0  0  0
   -2.0791   -1.0729   -5.8442 Si  0  0  0  0  0  4  0  0  0  0  0  0
   -0.8168    6.3325   -5.6954 Si  0  0  0  0  0  4  0  0  0  0  0  0
   -0.7932    0.5044   -8.9289 Si  0  0  0  0  0  4  0  0  0  0  0  0
   -2.8251    5.4267   -5.7764 Si  0  0  0  0  0  4  0  0  0  0  0  0
   -2.0482    1.9165  -10.1003 Si  0  0  0  0  0  4  0  0  0  0  0  0
   -2.7221    3.5086   -6.9019 Si  0  0  0  0  0  4  0  0  0  0  0  0
   -2.3673    3.8392   -9.0672 Si  0  0  0  0  0  4  0  0  0  0  0  0
    1.1638   -0.8064   -5.9916 F   0  0  0  0  0  0  0  0  0  0  0  0
    0.2386   -2.8955   -4.5031 F   0  0  0  0  0  0  0  0  0  0  0  0
    2.5186    1.6773   -2.5416 F   0  0  0  0  0  0  0  0  0  0  0  0
    1.8291    1.6045   -5.1686 F   0  0  0  0  0  0  0  0  0  0  0  0
    1.9844    5.9579   -4.2428 F   0  0  0  0  0  0  0  0  0  0  0  0
    1.4454    4.1605   -6.2040 F   0  0  0  0  0  0  0  0  0  0  0  0
   -0.3817    6.7905   -7.2812 F   0  0  0  0  0  0  0  0  0  0  0  0
   -0.8907    7.7741   -4.8027 F   0  0  0  0  0  0  0  0  0  0  0  0
   -2.8941    0.2783   -5.2375 F   0  0  0  0  0  0  0  0  0  0  0  0
   -2.9929   -2.4304   -5.3568 F   0  0  0  0  0  0  0  0  0  0  0  0
   -4.1273    2.6110   -6.7238 F   0  0  0  0  0  0  0  0  0  0  0  0
   -1.3855    2.6487   -6.2896 F   0  0  0  0  0  0  0  0  0  0  0  0
   -3.7487    4.5771   -9.7461 F   0  0  0  0  0  0  0  0  0  0  0  0
   -1.0900    4.9301   -9.3292 F   0  0  0  0  0  0  0  0  0  0  0  0
   -1.3820    2.2294  -11.6270 F   0  0  0  0  0  0  0  0  0  0  0  0
   -3.5569    1.1972  -10.3728 F   0  0  0  0  0  0  0  0  0  0  0  0
   -1.6109    3.3353   -3.3768 F   0  0  0  0  0  0  0  0  0  0  0  0
    0.4333    4.2171   -1.8234 F   0  0  0  0  0  0  0  0  0  0  0  0
   -1.5233   -2.6382   -8.5555 F   0  0  0  0  0  0  0  0  0  0  0  0
   -3.6306   -0.9281   -8.6081 F   0  0  0  0  0  0  0  0  0  0  0  0
   -3.3441    5.0800   -4.2103 F   0  0  0  0  0  0  0  0  0  0  0  0
   -3.9041    6.5081   -6.4546 F   0  0  0  0  0  0  0  0  0  0  0  0
    0.2878   -0.2203  -10.0372 F   0  0  0  0  0  0  0  0  0  0  0  0
    0.1636    1.2909   -7.7927 F   0  0  0  0  0  0  0  0  0  0  0  0
  1  2  1  0
  1  3  1  0
  2  7  1  0
  2 14  1  0
  2 15  1  0
  3  4  1  0
  3 16  1  0
  3 17  1  0
  4  5  1  0
  4 30  1  0
  4 31  1  0
  5  8  1  0
  5 18  1  0
  5 19  1  0
  6  7  1  0
  6  9  1  0
  6 32  1  0
  6 33  1  0
  7 22  1  0
  7 23  1  0
  8 10  1  0
  8 20  1  0
  8 21  1  0
  9 11  1  0
  9 36  1  0
  9 37  1  0
 10 12  1  0
 10 34  1  0
 10 35  1  0
 11 13  1  0
 11 28  1  0
 11 29  1  0
 12 13  1  0
 12 24  1  0
 12 25  1  0
 13 26  1  0
 13 27  1  0
M  CHG  1   1   1
M  RAD  1   1   2
M  END
$$$$

     RDKit          3D

 37 37  0  0  0  0  0  0  0  0999 V2000
    0.0046   -0.0180   -3.1935 S   0  0  0  0  0  2  0  0  0  0  0  0
    2.1506    0.1827   -3.3917 Si  0  0  0  0  0  4  0  0  0  0  0  0
   -0.6812   -1.1306   -4.9178 Si  0  0  0  0  0  4  0  0  0  0  0  0
   -2.8244   -1.6240   -4.7972 Si  0  0  0  0  0  4  0  0  0  0  0  0
   -3.3093   -3.5321   -5.8292 Si  0  0  0  0  0  4  0  0  0  0  0  0
    5.0735   -1.7263   -4.6469 Si  0  0  0  0  0  4  0  0  0  0  0  0
    2.8846   -1.6317   -4.4387 Si  0  0  0  0  0  4  0  0  0  0  0  0
   -1.5138   -4.8465   -6.0362 Si  0  0  0  0  0  4  0  0  0  0  0  0
    5.5173   -3.6908   -5.6733 Si  0  0  0  0  0  4  0  0  0  0  0  0
   -0.2400   -4.2462   -7.7429 Si  0  0  0  0  0  4  0  0  0  0  0  0
    5.3099   -3.5375   -7.8517 Si  0  0  0  0  0  4  0  0  0  0  0  0
    1.8875   -4.9258   -7.4628 Si  0  0  0  0  0  4  0  0  0  0  0  0
    3.2904   -3.7257   -8.6506 Si  0  0  0  0  0  4  0  0  0  0  0  0
    2.5032    1.5338   -4.2989 F   0  0  0  0  0  0  0  0  0  0  0  0
    2.8356    0.2791   -1.8369 F   0  0  0  0  0  0  0  0  0  0  0  0
    0.1868   -2.5792   -4.9186 F   0  0  0  0  0  0  0  0  0  0  0  0
   -0.3271   -0.1909   -6.2683 F   0  0  0  0  0  0  0  0  0  0  0  0
   -3.9531   -3.2711   -7.3636 F   0  0  0  0  0  0  0  0  0  0  0  0
   -4.4409   -4.3555   -4.8549 F   0  0  0  0  0  0  0  0  0  0  0  0
   -0.6582   -4.9628   -4.5930 F   0  0  0  0  0  0  0  0  0  0  0  0
   -2.1048   -6.4164   -6.3622 F   0  0  0  0  0  0  0  0  0  0  0  0
    2.2653   -1.5928   -6.0175 F   0  0  0  0  0  0  0  0  0  0  0  0
    2.3249   -2.9651   -3.5838 F   0  0  0  0  0  0  0  0  0  0  0  0
    1.9690   -6.5425   -8.0087 F   0  0  0  0  0  0  0  0  0  0  0  0
    2.1968   -4.9438   -5.8348 F   0  0  0  0  0  0  0  0  0  0  0  0
    3.3818   -4.4293  -10.2076 F   0  0  0  0  0  0  0  0  0  0  0  0
    2.6243   -2.1773   -8.9381 F   0  0  0  0  0  0  0  0  0  0  0  0
    5.9589   -2.0315   -8.3331 F   0  0  0  0  0  0  0  0  0  0  0  0
    6.3266   -4.7085   -8.5686 F   0  0  0  0  0  0  0  0  0  0  0  0
   -3.3168   -1.6366   -3.1847 F   0  0  0  0  0  0  0  0  0  0  0  0
   -3.7059   -0.3851   -5.5696 F   0  0  0  0  0  0  0  0  0  0  0  0
    5.8742   -1.6448   -3.1822 F   0  0  0  0  0  0  0  0  0  0  0  0
    5.5651   -0.4751   -5.6930 F   0  0  0  0  0  0  0  0  0  0  0  0
   -0.8099   -5.0351   -9.1450 F   0  0  0  0  0  0  0  0  0  0  0  0
   -0.3203   -2.6068   -8.0467 F   0  0  0  0  0  0  0  0  0  0  0  0
    7.1561   -4.0190   -5.3126 F   0  0  0  0  0  0  0  0  0  0  0  0
    4.6239   -4.9257   -4.9887 F   0  0  0  0  0  0  0  0  0  0  0  0
  1  2  1  0
  1  3  1  0
  2  7  1  0
  2 14  1  0
  2 15  1  0
  3  4  1  0
  3 16  1  0
  3 17  1  0
  4  5  1  0
  4 30  1  0
  4 31  1  0
  5  8  1  0
  5 18  1  0
  5 19  1  0
  6  7  1  0
  6  9  1  0
  6 32  1  0
  6 33  1  0
  7 22  1  0
  7 23  1  0
  8 10  1  0
  8 20  1  0
  8 21  1  0
  9 11  1  0
  9 36  1  0
  9 37  1  0
 10 12  1  0
 10 34  1  0
 10 35  1  0
 11 13  1  0
 11 28  1  0
 11 29  1  0
 12 13  1  0
 12 24  1  0
 12 25  1  0
 13 26  1  0
 13 27  1  0
M  CHG  1   1   1
M  RAD  1   1   2
M  END
$$$$

     RDKit          3D

 37 37  0  0  0  0  0  0  0  0999 V2000
    0.0046   -0.0180   -3.1935 S   0  0  0  0  0  2  0  0  0  0  0  0
    0.2516    2.1228   -3.3945 Si  0  0  0  0  0  4  0  0  0  0  0  0
    0.9536   -0.9212   -4.9154 Si  0  0  0  0  0  4  0  0  0  0  0  0
    0.9938   -3.1200   -4.7916 Si  0  0  0  0  0  4  0  0  0  0  0  0
    2.7618   -3.9899   -5.8203 Si  0  0  0  0  0  4  0  0  0  0  0  0
    2.7245    4.5868   -4.6503 Si  0  0  0  0  0  4  0  0  0  0  0  0
    2.1796    2.4650   -4.4398 Si  0  0  0  0  0  4  0  0  0  0  0  0
    4.4189   -2.5048   -6.0275 Si  0  0  0  0  0  4  0  0  0  0  0  0
    4.7395    4.6139   -5.6745 Si  0  0  0  0  0  4  0  0  0  0  0  0
    4.0964   -1.1370   -7.7365 Si  0  0  0  0  0  4  0  0  0  0  0  0
    4.5492    4.4396   -7.8528 Si  0  0  0  0  0  4  0  0  0  0  0  0
    5.2004    0.8048   -7.4580 Si  0  0  0  0  0  4  0  0  0  0  0  0
    4.3172    2.4235   -8.6491 Si  0  0  0  0  0  4  0  0  0  0  0  0
   -0.9966    2.7456   -4.3040 F   0  0  0  0  0  0  0  0  0  0  0  0
    0.2969    2.8153   -1.8406 F   0  0  0  0  0  0  0  0  0  0  0  0
    2.5502   -0.3711   -4.9151 F   0  0  0  0  0  0  0  0  0  0  0  0
    0.1089   -0.3827   -6.2677 F   0  0  0  0  0  0  0  0  0  0  0  0
    2.3752   -4.5681   -7.3543 F   0  0  0  0  0  0  0  0  0  0  0  0
    3.3327   -5.2658   -4.8435 F   0  0  0  0  0  0  0  0  0  0  0  0
    4.7076   -1.6895   -4.5851 F   0  0  0  0  0  0  0  0  0  0  0  0
    5.8332   -3.4077   -6.3506 F   0  0  0  0  0  0  0  0  0  0  0  0
    2.0156    1.8647   -6.0179 F   0  0  0  0  0  0  0  0  0  0  0  0
    3.3677    1.6432   -3.5823 F   0  0  0  0  0  0  0  0  0  0  0  0
    6.7998    0.5499   -8.0016 F   0  0  0  0  0  0  0  0  0  0  0  0
    5.2800    1.1061   -5.8303 F   0  0  0  0  0  0  0  0  0  0  0  0
    5.0263    2.3655  -10.2051 F   0  0  0  0  0  0  0  0  0  0  0  0
    2.6650    2.0912   -8.9380 F   0  0  0  0  0  0  0  0  0  0  0  0
    3.2102    5.3848   -8.3371 F   0  0  0  0  0  0  0  0  0  0  0  0
    5.9057    5.1915   -8.5692 F   0  0  0  0  0  0  0  0  0  0  0  0
    0.9025   -3.6021   -3.1785 F   0  0  0  0  0  0  0  0  0  0  0  0
   -0.3996   -3.7278   -5.5647 F   0  0  0  0  0  0  0  0  0  0  0  0
    2.8083    5.3892   -3.1867 F   0  0  0  0  0  0  0  0  0  0  0  0
    1.6029    5.3247   -5.6988 F   0  0  0  0  0  0  0  0  0  0  0  0
    4.7524   -1.8594   -9.1368 F   0  0  0  0  0  0  0  0  0  0  0  0
    2.4762   -0.8774   -8.0426 F   0  0  0  0  0  0  0  0  0  0  0  0
    5.3985    6.1502   -5.3152 F   0  0  0  0  0  0  0  0  0  0  0  0
    5.7625    3.4858   -4.9870 F   0  0  0  0  0  0  0  0  0  0  0  0
  1  2  1  0
  1  3  1  0
  2  7  1  0
  2 14  1  0
  2 15  1  0
  3  4  1  0
  3 16  1  0
  3 17  1  0
  4  5  1  0
  4 30  1  0
  4 31  1  0
  5  8  1  0
  5 18  1  0
  5 19  1  0
  6  7  1  0
  6  9  1  0
  6 32  1  0
  6 33  1  0
  7 22  1  0
  7 23  1  0
  8 10  1  0
  8 20  1  0
  8 21  1  0
  9 11  1  0
  9 36  1  0
  9 37  1  0
 10 12  1  0
 10 34  1  0
 10 35  1  0
 11 13  1  0
 11 28  1  0
 11 29  1  0
 12 13  1  0
 12 24  1  0
 12 25  1  0
 13 26  1  0
 13 27  1  0
M  CHG  1   1   1
M  RAD  1   1   2
M  END
$$$$

     RDKit          3D

 37 37  0  0  0  0  0  0  0  0999 V2000
    0.0046   -0.0180   -3.1935 S   0  0  0  0  0  2  0  0  0  0  0  0
    0.1574   -1.8232   -4.2532 Si  0  0  0  0  0  4  0  0  0  0  0  0
   -1.2682    1.4396   -3.9419 Si  0  0  0  0  0  4  0  0  0  0  0  0
   -2.8077    0.7553   -5.3515 Si  0  0  0  0  0  4  0  0  0  0  0  0
   -4.6882    0.1112   -4.3748 Si  0  0  0  0  0  4  0  0  0  0  0  0
   -0.2042   -3.1504   -7.6100 Si  0  0  0  0  0  4  0  0  0  0  0  0
    0.8455   -1.6410   -6.3321 Si  0  0  0  0  0  4  0  0  0  0  0  0
   -5.2506   -1.9558   -4.9384 Si  0  0  0  0  0  4  0  0  0  0  0  0
   -0.8768   -2.2189   -9.5073 Si  0  0  0  0  0  4  0  0  0  0  0  0
   -5.1405   -2.3143   -7.1229 Si  0  0  0  0  0  4  0  0  0  0  0  0
   -2.7581   -3.0957  -10.2867 Si  0  0  0  0  0  4  0  0  0  0  0  0
   -4.7612   -4.4616   -7.4882 Si  0  0  0  0  0  4  0  0  0  0  0  0
   -3.4355   -4.8686   -9.1926 Si  0  0  0  0  0  4  0  0  0  0  0  0
    1.2266   -2.8424   -3.4167 F   0  0  0  0  0  0  0  0  0  0  0  0
   -1.3527   -2.6191   -4.1971 F   0  0  0  0  0  0  0  0  0  0  0  0
   -2.0609    2.2052   -2.6349 F   0  0  0  0  0  0  0  0  0  0  0  0
   -0.3643    2.6735   -4.7005 F   0  0  0  0  0  0  0  0  0  0  0  0
   -4.4899    0.1899   -2.7082 F   0  0  0  0  0  0  0  0  0  0  0  0
   -5.9813    1.1315   -4.7712 F   0  0  0  0  0  0  0  0  0  0  0  0
   -4.3160   -3.0720   -4.0846 F   0  0  0  0  0  0  0  0  0  0  0  0
   -6.8605   -2.1994   -4.4443 F   0  0  0  0  0  0  0  0  0  0  0  0
    0.6638   -0.0854   -6.9530 F   0  0  0  0  0  0  0  0  0  0  0  0
    2.5129   -1.9957   -6.4532 F   0  0  0  0  0  0  0  0  0  0  0  0
   -6.2758   -5.2300   -7.6712 F   0  0  0  0  0  0  0  0  0  0  0  0
   -4.0719   -5.1714   -6.0961 F   0  0  0  0  0  0  0  0  0  0  0  0
   -2.0657   -5.7740   -8.7249 F   0  0  0  0  0  0  0  0  0  0  0  0
   -4.2741   -5.8736  -10.2913 F   0  0  0  0  0  0  0  0  0  0  0  0
   -2.4698   -3.5424  -11.8979 F   0  0  0  0  0  0  0  0  0  0  0  0
   -4.0032   -1.9300  -10.3697 F   0  0  0  0  0  0  0  0  0  0  0  0
   -3.1900    2.0430   -6.4036 F   0  0  0  0  0  0  0  0  0  0  0  0
   -2.2294   -0.4920   -6.2733 F   0  0  0  0  0  0  0  0  0  0  0  0
   -1.5395   -3.7130   -6.7732 F   0  0  0  0  0  0  0  0  0  0  0  0
    0.8061   -4.4457   -7.9901 F   0  0  0  0  0  0  0  0  0  0  0  0
   -4.0077   -1.3478   -7.8872 F   0  0  0  0  0  0  0  0  0  0  0  0
   -6.6586   -1.8917   -7.7834 F   0  0  0  0  0  0  0  0  0  0  0  0
   -1.1459   -0.5745   -9.2159 F   0  0  0  0  0  0  0  0  0  0  0  0
    0.3897   -2.3306  -10.6166 F   0  0  0  0  0  0  0  0  0  0  0  0
  1  2  1  0
  1  3  1  0
  2  7  1  0
  2 14  1  0
  2 15  1  0
  3  4  1  0
  3 16  1  0
  3 17  1  0
  4  5  1  0
  4 30  1  0
  4 31  1  0
  5  8  1  0
  5 18  1  0
  5 19  1  0
  6  7  1  0
  6  9  1  0
  6 32  1  0
  6 33  1  0
  7 22  1  0
  7 23  1  0
  8 10  1  0
  8 20  1  0
  8 21  1  0
  9 11  1  0
  9 36  1  0
  9 37  1  0
 10 12  1  0
 10 34  1  0
 10 35  1  0
 11 13  1  0
 11 28  1  0
 11 29  1  0
 12 13  1  0
 12 24  1  0
 12 25  1  0
 13 26  1  0
 13 27  1  0
M  CHG  1   1   1
M  RAD  1   1   2
M  END
$$$$

     RDKit          3D

 37 37  0  0  0  0  0  0  0  0999 V2000
    0.0046   -0.0180   -3.1935 S   0  0  0  0  0  2  0  0  0  0  0  0
   -0.0707   -2.1717   -3.3950 Si  0  0  0  0  0  4  0  0  0  0  0  0
   -1.0081    0.8071   -4.9182 Si  0  0  0  0  0  4  0  0  0  0  0  0
   -1.2234    2.9957   -4.7948 Si  0  0  0  0  0  4  0  0  0  0  0  0
   -3.0519    3.7224   -5.8288 Si  0  0  0  0  0  4  0  0  0  0  0  0
   -2.3362   -4.8243   -4.6577 Si  0  0  0  0  0  4  0  0  0  0  0  0
   -1.9624   -2.6659   -4.4458 Si  0  0  0  0  0  4  0  0  0  0  0  0
   -4.5851    2.1102   -6.0407 Si  0  0  0  0  0  4  0  0  0  0  0  0
   -4.3396   -5.0115   -5.6878 Si  0  0  0  0  0  4  0  0  0  0  0  0
   -4.1499    0.7726   -7.7486 Si  0  0  0  0  0  4  0  0  0  0  0  0
   -4.1574   -4.8223   -7.8656 Si  0  0  0  0  0  4  0  0  0  0  0  0
   -5.0967   -1.2508   -7.4731 Si  0  0  0  0  0  4  0  0  0  0  0  0
   -4.0841   -2.7941   -8.6614 Si  0  0  0  0  0  4  0  0  0  0  0  0
    1.2257   -2.6931   -4.3007 F   0  0  0  0  0  0  0  0  0  0  0  0
   -0.0654   -2.8657   -1.8411 F   0  0  0  0  0  0  0  0  0  0  0  0
   -2.5559    0.1318   -4.9226 F   0  0  0  0  0  0  0  0  0  0  0  0
   -0.1193    0.3376   -6.2680 F   0  0  0  0  0  0  0  0  0  0  0  0
   -2.7081    4.3297   -7.3618 F   0  0  0  0  0  0  0  0  0  0  0  0
   -3.7253    4.9487   -4.8538 F   0  0  0  0  0  0  0  0  0  0  0  0
   -4.8123    1.2744   -4.5991 F   0  0  0  0  0  0  0  0  0  0  0  0
   -6.0658    2.8979   -6.3681 F   0  0  0  0  0  0  0  0  0  0  0  0
   -1.8420   -2.0544   -6.0235 F   0  0  0  0  0  0  0  0  0  0  0  0
   -3.2146   -1.9413   -3.5920 F   0  0  0  0  0  0  0  0  0  0  0  0
   -6.7097   -1.1239   -8.0214 F   0  0  0  0  0  0  0  0  0  0  0  0
   -5.1569   -1.5577   -5.8456 F   0  0  0  0  0  0  0  0  0  0  0  0
   -4.7911   -2.7925  -10.2195 F   0  0  0  0  0  0  0  0  0  0  0  0
   -2.4628   -2.3314   -8.9456 F   0  0  0  0  0  0  0  0  0  0  0  0
   -2.7461   -5.6580   -8.3458 F   0  0  0  0  0  0  0  0  0  0  0  0
   -5.4477   -5.6797   -8.5858 F   0  0  0  0  0  0  0  0  0  0  0  0
   -1.1754    3.4833   -3.1816 F   0  0  0  0  0  0  0  0  0  0  0  0
    0.1195    3.7125   -5.5640 F   0  0  0  0  0  0  0  0  0  0  0  0
   -2.3602   -5.6310   -3.1943 F   0  0  0  0  0  0  0  0  0  0  0  0
   -1.1564   -5.4706   -5.7029 F   0  0  0  0  0  0  0  0  0  0  0  0
   -4.8571    1.4408   -9.1509 F   0  0  0  0  0  0  0  0  0  0  0  0
   -2.5132    0.6427   -8.0500 F   0  0  0  0  0  0  0  0  0  0  0  0
   -4.8755   -6.5953   -5.3302 F   0  0  0  0  0  0  0  0  0  0  0  0
   -5.4511   -3.9683   -5.0034 F   0  0  0  0  0  0  0  0  0  0  0  0
  1  2  1  0
  1  3  1  0
  2  7  1  0
  2 14  1  0
  2 15  1  0
  3  4  1  0
  3 16  1  0
  3 17  1  0
  4  5  1  0
  4 30  1  0
  4 31  1  0
  5  8  1  0
  5 18  1  0
  5 19  1  0
  6  7  1  0
  6  9  1  0
  6 32  1  0
  6 33  1  0
  7 22  1  0
  7 23  1  0
  8 10  1  0
  8 20  1  0
  8 21  1  0
  9 11  1  0
  9 36  1  0
  9 37  1  0
 10 12  1  0
 10 34  1  0
 10 35  1  0
 11 13  1  0
 11 28  1  0
 11 29  1  0
 12 13  1  0
 12 24  1  0
 12 25  1  0
 13 26  1  0
 13 27  1  0
M  CHG  1   1   1
M  RAD  1   1   2
M  END
$$$$

     RDKit          3D

 37 37  0  0  0  0  0  0  0  0999 V2000
    0.0046   -0.0180   -3.1935 S   0  0  0  0  0  2  0  0  0  0  0  0
   -0.0278   -1.2796   -4.9567 Si  0  0  0  0  0  4  0  0  0  0  0  0
    1.1465    1.7223   -3.5977 Si  0  0  0  0  0  4  0  0  0  0  0  0
   -0.0651    3.5948   -3.3610 Si  0  0  0  0  0  4  0  0  0  0  0  0
    0.6000    5.0202   -4.9024 Si  0  0  0  0  0  4  0  0  0  0  0  0
   -2.0118   -1.1453   -8.0640 Si  0  0  0  0  0  4  0  0  0  0  0  0
   -2.0504   -1.1278   -5.8441 Si  0  0  0  0  0  4  0  0  0  0  0  0
   -0.9845    6.3085   -5.6956 Si  0  0  0  0  0  4  0  0  0  0  0  0
   -0.8067    0.4829   -8.9290 Si  0  0  0  0  0  4  0  0  0  0  0  0
   -2.9682    5.3498   -5.7766 Si  0  0  0  0  0  4  0  0  0  0  0  0
   -2.0987    1.8612  -10.1003 Si  0  0  0  0  0  4  0  0  0  0  0  0
   -2.8145    3.4351   -6.9021 Si  0  0  0  0  0  4  0  0  0  0  0  0
   -2.4686    3.7749   -9.0673 Si  0  0  0  0  0  4  0  0  0  0  0  0
    1.1842   -0.7755   -5.9916 F   0  0  0  0  0  0  0  0  0  0  0  0
    0.3146   -2.8884   -4.5030 F   0  0  0  0  0  0  0  0  0  0  0  0
    2.4728    1.7433   -2.5416 F   0  0  0  0  0  0  0  0  0  0  0  0
    1.7855    1.6521   -5.1686 F   0  0  0  0  0  0  0  0  0  0  0  0
    1.8255    6.0082   -4.2431 F   0  0  0  0  0  0  0  0  0  0  0  0
    1.3343    4.1970   -6.2041 F   0  0  0  0  0  0  0  0  0  0  0  0
   -0.5617    6.7777   -7.2815 F   0  0  0  0  0  0  0  0  0  0  0  0
   -1.0966    7.7476   -4.8030 F   0  0  0  0  0  0  0  0  0  0  0  0
   -2.9009    0.2014   -5.2375 F   0  0  0  0  0  0  0  0  0  0  0  0
   -2.9280   -2.5089   -5.3567 F   0  0  0  0  0  0  0  0  0  0  0  0
   -4.1955    2.5006   -6.7239 F   0  0  0  0  0  0  0  0  0  0  0  0
   -1.4555    2.6109   -6.2897 F   0  0  0  0  0  0  0  0  0  0  0  0
   -3.8690    4.4759   -9.7463 F   0  0  0  0  0  0  0  0  0  0  0  0
   -1.2205    4.8991   -9.3294 F   0  0  0  0  0  0  0  0  0  0  0  0
   -1.4409    2.1916  -11.6271 F   0  0  0  0  0  0  0  0  0  0  0  0
   -3.5878    1.1023  -10.3728 F   0  0  0  0  0  0  0  0  0  0  0  0
   -1.6991    3.2914   -3.3770 F   0  0  0  0  0  0  0  0  0  0  0  0
    0.3211    4.2270   -1.8236 F   0  0  0  0  0  0  0  0  0  0  0  0
   -1.4534   -2.6779   -8.5554 F   0  0  0  0  0  0  0  0  0  0  0  0
   -3.6052   -1.0242   -8.6081 F   0  0  0  0  0  0  0  0  0  0  0  0
   -3.4778    4.9896   -4.2105 F   0  0  0  0  0  0  0  0  0  0  0  0
   -4.0754    6.4022   -6.4548 F   0  0  0  0  0  0  0  0  0  0  0  0
    0.2931   -0.2130  -10.0372 F   0  0  0  0  0  0  0  0  0  0  0  0
    0.1289    1.2944   -7.7927 F   0  0  0  0  0  0  0  0  0  0  0  0
  1  2  1  0
  1  3  1  0
  2  7  1  0
  2 14  1  0
  2 15  1  0
  3  4  1  0
  3 16  1  0
  3 17  1  0
  4  5  1  0
  4 30  1  0
  4 31  1  0
  5  8  1  0
  5 18  1  0
  5 19  1  0
  6  7  1  0
  6  9  1  0
  6 32  1  0
  6 33  1  0
  7 22  1  0
  7 23  1  0
  8 10  1  0
  8 20  1  0
  8 21  1  0
  9 11  1  0
  9 36  1  0
  9 37  1  0
 10 12  1  0
 10 34  1  0
 10 35  1  0
 11 13  1  0
 11 28  1  0
 11 29  1  0
 12 13  1  0
 12 24  1  0
 12 25  1  0
 13 26  1  0
 13 27  1  0
M  CHG  1   1   1
M  RAD  1   1   2
M  END
$$$$
