
     RDKit          3D

 37 37  0  0  0  0  0  0  0  0999 V2000
    1.6235   -0.2101   -2.7418 S   0  0  0  0  0  2  0  0  0  0  0  0
    3.5757    0.3618   -3.2400 Si  0  0  0  0  0  4  0  0  0  0  0  0
    0.6957   -1.6179   -3.9628 Si  0  0  0  0  0  4  0  0  0  0  0  0
    1.8706   -2.4257   -5.6177 Si  0  0  0  0  0  4  0  0  0  0  0  0
    1.9074   -1.2148   -7.4445 Si  0  0  0  0  0  4  0  0  0  0  0  0
    4.7894    3.2913   -5.1273 Si  0  0  0  0  0  4  0  0  0  0  0  0
    3.6797    2.6026   -3.3484 Si  0  0  0  0  0  4  0  0  0  0  0  0
   -0.0071   -0.1984   -7.9000 Si  0  0  0  0  0  4  0  0  0  0  0  0
    3.4529    4.0234   -6.7478 Si  0  0  0  0  0  4  0  0  0  0  0  0
   -0.4731    1.4856   -6.5855 Si  0  0  0  0  0  4  0  0  0  0  0  0
    2.1041    5.6418   -6.0665 Si  0  0  0  0  0  4  0  0  0  0  0  0
   -0.4247    3.4629   -7.6515 Si  0  0  0  0  0  4  0  0  0  0  0  0
   -0.0388    5.0690   -6.1540 Si  0  0  0  0  0  4  0  0  0  0  0  0
    4.6209   -0.1122   -1.9732 F   0  0  0  0  0  0  0  0  0  0  0  0
    4.1778   -0.3392   -4.6354 F   0  0  0  0  0  0  0  0  0  0  0  0
   -0.7647   -0.9873   -4.5852 F   0  0  0  0  0  0  0  0  0  0  0  0
    0.2059   -2.9382   -2.9881 F   0  0  0  0  0  0  0  0  0  0  0  0
    2.1899   -2.2796   -8.7564 F   0  0  0  0  0  0  0  0  0  0  0  0
    3.2158   -0.1478   -7.4676 F   0  0  0  0  0  0  0  0  0  0  0  0
    0.0861    0.3714   -9.5071 F   0  0  0  0  0  0  0  0  0  0  0  0
   -1.2273   -1.3732   -7.8963 F   0  0  0  0  0  0  0  0  0  0  0  0
    2.1223    3.2742   -3.3734 F   0  0  0  0  0  0  0  0  0  0  0  0
    4.4395    3.2390   -1.9709 F   0  0  0  0  0  0  0  0  0  0  0  0
    0.6638    3.4717   -8.9069 F   0  0  0  0  0  0  0  0  0  0  0  0
   -1.9668    3.7703   -8.3182 F   0  0  0  0  0  0  0  0  0  0  0  0
   -0.5829    4.6033   -4.6114 F   0  0  0  0  0  0  0  0  0  0  0  0
   -0.9402    6.4542   -6.5677 F   0  0  0  0  0  0  0  0  0  0  0  0
    2.3368    6.9899   -7.0816 F   0  0  0  0  0  0  0  0  0  0  0  0
    2.5468    6.1245   -4.4981 F   0  0  0  0  0  0  0  0  0  0  0  0
    3.4798   -2.7376   -5.1423 F   0  0  0  0  0  0  0  0  0  0  0  0
    1.2214   -3.9559   -6.0204 F   0  0  0  0  0  0  0  0  0  0  0  0
    5.9007    4.5258   -4.7519 F   0  0  0  0  0  0  0  0  0  0  0  0
    5.6859    1.9990   -5.7426 F   0  0  0  0  0  0  0  0  0  0  0  0
    0.6131    1.5712   -5.3265 F   0  0  0  0  0  0  0  0  0  0  0  0
   -2.0728    1.3058   -6.0140 F   0  0  0  0  0  0  0  0  0  0  0  0
    4.4390    4.5417   -8.0251 F   0  0  0  0  0  0  0  0  0  0  0  0
    2.5191    2.7634   -7.3108 F   0  0  0  0  0  0  0  0  0  0  0  0
  1  2  1  0
  1  3  1  0
  2  7  1  0
  2 14  1  0
  2 15  1  0
  3  4  1  0
  3 16  1  0
  3 17  1  0
  4  5  1  0
  4 30  1  0
  4 31  1  0
  5  8  1  0
  5 18  1  0
  5 19  1  0
  6  7  1  0
  6  9  1  0
  6 32  1  0
  6 33  1  0
  7 22  1  0
  7 23  1  0
  8 10  1  0
  8 20  1  0
  8 21  1  0
  9 11  1  0
  9 36  1  0
  9 37  1  0
 10 12  1  0
 10 34  1  0
 10 35  1  0
 11 13  1  0
 11 28  1  0
 11 29  1  0
 12 13  1  0
 12 24  1  0
 12 25  1  0
 13 26  1  0
 13 27  1  0
M  CHG  1   1   1
M  RAD  1   1   2
M  END
$$$$

     RDKit          3D

 37 37  0  0  0  0  0  0  0  0999 V2000
    1.6235   -0.2101   -2.7418 S   0  0  0  0  0  2  0  0  0  0  0  0
    0.4160    1.5346   -3.2000 Si  0  0  0  0  0  4  0  0  0  0  0  0
    3.3927   -0.1716   -3.9996 Si  0  0  0  0  0  4  0  0  0  0  0  0
    4.6933    1.4417   -3.2877 Si  0  0  0  0  0  4  0  0  0  0  0  0
    6.3017    2.0299   -4.6670 Si  0  0  0  0  0  4  0  0  0  0  0  0
   -1.1831    2.9620   -6.2062 Si  0  0  0  0  0  4  0  0  0  0  0  0
    0.5022    1.8076   -5.3980 Si  0  0  0  0  0  4  0  0  0  0  0  0
    5.8019    2.0284   -6.7861 Si  0  0  0  0  0  4  0  0  0  0  0  0
   -1.0691    5.1179   -5.9464 Si  0  0  0  0  0  4  0  0  0  0  0  0
    5.7046    4.1076   -7.6528 Si  0  0  0  0  0  4  0  0  0  0  0  0
    0.9510    5.9392   -5.6302 Si  0  0  0  0  0  4  0  0  0  0  0  0
    4.4042    5.4272   -6.4690 Si  0  0  0  0  0  4  0  0  0  0  0  0
    2.3372    5.5797   -7.3045 Si  0  0  0  0  0  4  0  0  0  0  0  0
   -1.1541    1.3325   -2.6430 F   0  0  0  0  0  0  0  0  0  0  0  0
    1.1792    2.8457   -2.4349 F   0  0  0  0  0  0  0  0  0  0  0  0
    2.8838   -0.0195   -5.5680 F   0  0  0  0  0  0  0  0  0  0  0  0
    4.1323   -1.6831   -3.8245 F   0  0  0  0  0  0  0  0  0  0  0  0
    7.6520    1.0297   -4.3615 F   0  0  0  0  0  0  0  0  0  0  0  0
    6.8170    3.6021   -4.2398 F   0  0  0  0  0  0  0  0  0  0  0  0
    4.3848    1.2551   -7.1892 F   0  0  0  0  0  0  0  0  0  0  0  0
    7.0484    1.2519   -7.6594 F   0  0  0  0  0  0  0  0  0  0  0  0
    2.0014    2.4435   -5.7936 F   0  0  0  0  0  0  0  0  0  0  0  0
    0.4048    0.2552   -6.1069 F   0  0  0  0  0  0  0  0  0  0  0  0
    5.0315    6.9986   -6.3699 F   0  0  0  0  0  0  0  0  0  0  0  0
    4.2814    4.8378   -4.8985 F   0  0  0  0  0  0  0  0  0  0  0  0
    2.3375    6.9063   -8.3752 F   0  0  0  0  0  0  0  0  0  0  0  0
    1.9359    4.2269   -8.2142 F   0  0  0  0  0  0  0  0  0  0  0  0
    0.8053    7.6110   -5.4018 F   0  0  0  0  0  0  0  0  0  0  0  0
    1.5534    5.3146   -4.1633 F   0  0  0  0  0  0  0  0  0  0  0  0
    3.7308    2.7563   -2.8069 F   0  0  0  0  0  0  0  0  0  0  0  0
    5.4248    0.8954   -1.8406 F   0  0  0  0  0  0  0  0  0  0  0  0
   -2.6121    2.3788   -5.4865 F   0  0  0  0  0  0  0  0  0  0  0  0
   -1.3264    2.5958   -7.8679 F   0  0  0  0  0  0  0  0  0  0  0  0
    5.1983    3.9900   -9.2429 F   0  0  0  0  0  0  0  0  0  0  0  0
    7.2830    4.7040   -7.6553 F   0  0  0  0  0  0  0  0  0  0  0  0
   -1.7404    5.8841   -7.3171 F   0  0  0  0  0  0  0  0  0  0  0  0
   -2.0325    5.5863   -4.6355 F   0  0  0  0  0  0  0  0  0  0  0  0
  1  2  1  0
  1  3  1  0
  2  7  1  0
  2 14  1  0
  2 15  1  0
  3  4  1  0
  3 16  1  0
  3 17  1  0
  4  5  1  0
  4 30  1  0
  4 31  1  0
  5  8  1  0
  5 18  1  0
  5 19  1  0
  6  7  1  0
  6  9  1  0
  6 32  1  0
  6 33  1  0
  7 22  1  0
  7 23  1  0
  8 10  1  0
  8 20  1  0
  8 21  1  0
  9 11  1  0
  9 36  1  0
  9 37  1  0
 10 12  1  0
 10 34  1  0
 10 35  1  0
 11 13  1  0
 11 28  1  0
 11 29  1  0
 12 13  1  0
 12 24  1  0
 12 25  1  0
 13 26  1  0
 13 27  1  0
M  CHG  1   1   1
M  RAD  1   1   2
M  END
$$$$

     RDKit          3D

 37 37  0  0  0  0  0  0  0  0999 V2000
    1.6235   -0.2101   -2.7418 S   0  0  0  0  0  2  0  0  0  0  0  0
    3.7486    0.1947   -2.6087 Si  0  0  0  0  0  4  0  0  0  0  0  0
    1.2547   -2.1829   -3.4461 Si  0  0  0  0  0  4  0  0  0  0  0  0
   -0.1397   -2.2072   -5.1894 Si  0  0  0  0  0  4  0  0  0  0  0  0
   -0.1139   -0.3172   -6.3190 Si  0  0  0  0  0  4  0  0  0  0  0  0
    6.3792    1.9892   -4.4714 Si  0  0  0  0  0  4  0  0  0  0  0  0
    4.2141    1.6221   -4.2781 Si  0  0  0  0  0  4  0  0  0  0  0  0
    1.0328   -0.4286   -8.2009 Si  0  0  0  0  0  4  0  0  0  0  0  0
    7.4214    0.4064   -5.6352 Si  0  0  0  0  0  4  0  0  0  0  0  0
    2.3301   -2.2084   -8.3363 Si  0  0  0  0  0  4  0  0  0  0  0  0
    5.9998   -0.9597   -6.6524 Si  0  0  0  0  0  4  0  0  0  0  0  0
    4.0987   -1.6835   -9.6338 Si  0  0  0  0  0  4  0  0  0  0  0  0
    5.3627   -0.1323   -8.6284 Si  0  0  0  0  0  4  0  0  0  0  0  0
    4.1079    0.8893   -1.1063 F   0  0  0  0  0  0  0  0  0  0  0  0
    4.6401   -1.2152   -2.7363 F   0  0  0  0  0  0  0  0  0  0  0  0
    2.7172   -2.9248   -3.8607 F   0  0  0  0  0  0  0  0  0  0  0  0
    0.6030   -3.0776   -2.1477 F   0  0  0  0  0  0  0  0  0  0  0  0
    0.4876    0.9065   -5.2948 F   0  0  0  0  0  0  0  0  0  0  0  0
   -1.7078    0.1561   -6.7039 F   0  0  0  0  0  0  0  0  0  0  0  0
    0.0039   -0.3787   -9.5534 F   0  0  0  0  0  0  0  0  0  0  0  0
    2.0287    0.9539   -8.2947 F   0  0  0  0  0  0  0  0  0  0  0  0
    3.5257    0.9971   -5.6719 F   0  0  0  0  0  0  0  0  0  0  0  0
    3.4380    3.0778   -3.9068 F   0  0  0  0  0  0  0  0  0  0  0  0
    3.5626   -1.0364  -11.0852 F   0  0  0  0  0  0  0  0  0  0  0  0
    5.0373   -3.0525   -9.8368 F   0  0  0  0  0  0  0  0  0  0  0  0
    6.7154    0.1180   -9.5864 F   0  0  0  0  0  0  0  0  0  0  0  0
    4.5546    1.3234   -8.4710 F   0  0  0  0  0  0  0  0  0  0  0  0
    4.6598   -1.3159   -5.7344 F   0  0  0  0  0  0  0  0  0  0  0  0
    6.8144   -2.4172   -6.9653 F   0  0  0  0  0  0  0  0  0  0  0  0
    0.2082   -3.5487   -6.1363 F   0  0  0  0  0  0  0  0  0  0  0  0
   -1.7128   -2.4405   -4.5712 F   0  0  0  0  0  0  0  0  0  0  0  0
    6.5911    3.4724   -5.2876 F   0  0  0  0  0  0  0  0  0  0  0  0
    7.0954    2.1559   -2.9684 F   0  0  0  0  0  0  0  0  0  0  0  0
    1.5154   -3.4669   -9.1450 F   0  0  0  0  0  0  0  0  0  0  0  0
    2.8616   -2.7591   -6.8529 F   0  0  0  0  0  0  0  0  0  0  0  0
    8.4073   -0.5039   -4.6124 F   0  0  0  0  0  0  0  0  0  0  0  0
    8.4012    1.1069   -6.8417 F   0  0  0  0  0  0  0  0  0  0  0  0
  1  2  1  0
  1  3  1  0
  2  7  1  0
  2 14  1  0
  2 15  1  0
  3  4  1  0
  3 16  1  0
  3 17  1  0
  4  5  1  0
  4 30  1  0
  4 31  1  0
  5  8  1  0
  5 18  1  0
  5 19  1  0
  6  7  1  0
  6  9  1  0
  6 32  1  0
  6 33  1  0
  7 22  1  0
  7 23  1  0
  8 10  1  0
  8 20  1  0
  8 21  1  0
  9 11  1  0
  9 36  1  0
  9 37  1  0
 10 12  1  0
 10 34  1  0
 10 35  1  0
 11 13  1  0
 11 28  1  0
 11 29  1  0
 12 13  1  0
 12 24  1  0
 12 25  1  0
 13 26  1  0
 13 27  1  0
M  CHG  1   1   1
M  RAD  1   1   2
M  END
$$$$

     RDKit          3D

 37 37  0  0  0  0  0  0  0  0999 V2000
    1.6235   -0.2101   -2.7418 S   0  0  0  0  0  2  0  0  0  0  0  0
   -0.0498   -0.7161   -4.0039 Si  0  0  0  0  0  4  0  0  0  0  0  0
    2.2782    1.7875   -3.1617 Si  0  0  0  0  0  4  0  0  0  0  0  0
    4.2137    1.7898   -4.2630 Si  0  0  0  0  0  4  0  0  0  0  0  0
    4.1053    3.2596   -5.9547 Si  0  0  0  0  0  4  0  0  0  0  0  0
    0.0534   -1.9181   -7.4862 Si  0  0  0  0  0  4  0  0  0  0  0  0
    0.4321   -0.1770   -6.1159 Si  0  0  0  0  0  4  0  0  0  0  0  0
    5.4809    2.7145   -7.6016 Si  0  0  0  0  0  4  0  0  0  0  0  0
    0.2657   -1.2198   -9.5668 Si  0  0  0  0  0  4  0  0  0  0  0  0
    4.4927    1.4753   -9.1598 Si  0  0  0  0  0  4  0  0  0  0  0  0
    2.1513   -1.7885  -10.5237 Si  0  0  0  0  0  4  0  0  0  0  0  0
    5.3966   -0.5553   -9.2775 Si  0  0  0  0  0  4  0  0  0  0  0  0
    3.8142   -2.1504   -9.1291 Si  0  0  0  0  0  4  0  0  0  0  0  0
   -1.4260    0.1429   -3.5266 F   0  0  0  0  0  0  0  0  0  0  0  0
   -0.3709   -2.3575   -3.8461 F   0  0  0  0  0  0  0  0  0  0  0  0
    2.4062    2.6127   -1.6834 F   0  0  0  0  0  0  0  0  0  0  0  0
    1.0858    2.5673   -4.0552 F   0  0  0  0  0  0  0  0  0  0  0  0
    2.5169    3.4490   -6.4937 F   0  0  0  0  0  0  0  0  0  0  0  0
    4.6030    4.7592   -5.3237 F   0  0  0  0  0  0  0  0  0  0  0  0
    6.1373    4.1330   -8.2542 F   0  0  0  0  0  0  0  0  0  0  0  0
    6.7681    1.8220   -6.9697 F   0  0  0  0  0  0  0  0  0  0  0  0
   -0.5881    1.0822   -6.6417 F   0  0  0  0  0  0  0  0  0  0  0  0
    2.0106    0.3439   -6.2251 F   0  0  0  0  0  0  0  0  0  0  0  0
    6.4278   -0.7290   -7.9388 F   0  0  0  0  0  0  0  0  0  0  0  0
    6.2764   -0.7879  -10.6776 F   0  0  0  0  0  0  0  0  0  0  0  0
    3.3537   -2.2510   -7.5324 F   0  0  0  0  0  0  0  0  0  0  0  0
    4.5828   -3.6154   -9.5399 F   0  0  0  0  0  0  0  0  0  0  0  0
    1.8805   -3.1702  -11.4859 F   0  0  0  0  0  0  0  0  0  0  0  0
    2.6261   -0.5636  -11.6118 F   0  0  0  0  0  0  0  0  0  0  0  0
    5.4134    2.3016   -3.1718 F   0  0  0  0  0  0  0  0  0  0  0  0
    4.6478    0.2644   -4.7962 F   0  0  0  0  0  0  0  0  0  0  0  0
    1.0317   -3.2189   -7.1127 F   0  0  0  0  0  0  0  0  0  0  0  0
   -1.5570   -2.4066   -7.1963 F   0  0  0  0  0  0  0  0  0  0  0  0
    2.8443    1.4003   -8.9066 F   0  0  0  0  0  0  0  0  0  0  0  0
    4.7586    2.2341  -10.6587 F   0  0  0  0  0  0  0  0  0  0  0  0
    0.0849    0.4730   -9.6322 F   0  0  0  0  0  0  0  0  0  0  0  0
   -1.0379   -1.8519  -10.4692 F   0  0  0  0  0  0  0  0  0  0  0  0
  1  2  1  0
  1  3  1  0
  2  7  1  0
  2 14  1  0
  2 15  1  0
  3  4  1  0
  3 16  1  0
  3 17  1  0
  4  5  1  0
  4 30  1  0
  4 31  1  0
  5  8  1  0
  5 18  1  0
  5 19  1  0
  6  7  1  0
  6  9  1  0
  6 32  1  0
  6 33  1  0
  7 22  1  0
  7 23  1  0
  8 10  1  0
  8 20  1  0
  8 21  1  0
  9 11  1  0
  9 36  1  0
  9 37  1  0
 10 12  1  0
 10 34  1  0
 10 35  1  0
 11 13  1  0
 11 28  1  0
 11 29  1  0
 12 13  1  0
 12 24  1  0
 12 25  1  0
 13 26  1  0
 13 27  1  0
M  CHG  1   1   1
M  RAD  1   1   2
M  END
$$$$

     RDKit          3D

 37 37  0  0  0  0  0  0  0  0999 V2000
    1.6235   -0.2101   -2.7418 S   0  0  0  0  0  2  0  0  0  0  0  0
    1.6976    1.4297   -4.0585 Si  0  0  0  0  0  4  0  0  0  0  0  0
    3.3538   -1.3975   -2.6555 Si  0  0  0  0  0  4  0  0  0  0  0  0
    5.2155   -0.2017   -2.2639 Si  0  0  0  0  0  4  0  0  0  0  0  0
    6.9359   -1.2584   -3.1695 Si  0  0  0  0  0  4  0  0  0  0  0  0
    3.6005    0.2917   -7.0095 Si  0  0  0  0  0  4  0  0  0  0  0  0
    1.6386    0.8290   -6.2073 Si  0  0  0  0  0  4  0  0  0  0  0  0
    8.5308    0.0984   -3.8685 Si  0  0  0  0  0  4  0  0  0  0  0  0
    4.5946    2.0077   -8.0762 Si  0  0  0  0  0  4  0  0  0  0  0  0
    8.1755    2.2113   -3.4240 Si  0  0  0  0  0  4  0  0  0  0  0  0
    6.7424    1.5194   -8.2887 Si  0  0  0  0  0  4  0  0  0  0  0  0
    7.2511    3.3397   -5.1053 Si  0  0  0  0  0  4  0  0  0  0  0  0
    8.0658    2.8064   -7.0662 Si  0  0  0  0  0  4  0  0  0  0  0  0
    0.2687    2.3387   -3.8049 F   0  0  0  0  0  0  0  0  0  0  0  0
    2.9689    2.4856   -3.7641 F   0  0  0  0  0  0  0  0  0  0  0  0
    3.5514   -2.3761   -4.0277 F   0  0  0  0  0  0  0  0  0  0  0  0
    3.1944   -2.4712   -1.3457 F   0  0  0  0  0  0  0  0  0  0  0  0
    7.5186   -2.3720   -2.0131 F   0  0  0  0  0  0  0  0  0  0  0  0
    6.4461   -2.2154   -4.4956 F   0  0  0  0  0  0  0  0  0  0  0  0
    8.8110   -0.0690   -5.5425 F   0  0  0  0  0  0  0  0  0  0  0  0
    9.9876   -0.3842   -3.1269 F   0  0  0  0  0  0  0  0  0  0  0  0
    0.5832   -0.4711   -6.3523 F   0  0  0  0  0  0  0  0  0  0  0  0
    0.9845    2.1096   -7.1200 F   0  0  0  0  0  0  0  0  0  0  0  0
    7.5841    4.9868   -4.8126 F   0  0  0  0  0  0  0  0  0  0  0  0
    5.5779    3.2117   -5.1160 F   0  0  0  0  0  0  0  0  0  0  0  0
    9.5494    1.9810   -6.8830 F   0  0  0  0  0  0  0  0  0  0  0  0
    8.4192    4.1970   -7.9681 F   0  0  0  0  0  0  0  0  0  0  0  0
    7.0303   -0.1162   -7.9565 F   0  0  0  0  0  0  0  0  0  0  0  0
    7.1904    1.7456   -9.9101 F   0  0  0  0  0  0  0  0  0  0  0  0
    5.4736   -0.1219   -0.5865 F   0  0  0  0  0  0  0  0  0  0  0  0
    5.0509    1.3602   -2.8160 F   0  0  0  0  0  0  0  0  0  0  0  0
    3.4088   -0.9619   -8.1511 F   0  0  0  0  0  0  0  0  0  0  0  0
    4.6327   -0.2243   -5.8163 F   0  0  0  0  0  0  0  0  0  0  0  0
    7.2376    2.4092   -2.0298 F   0  0  0  0  0  0  0  0  0  0  0  0
    9.6748    2.9581   -3.0893 F   0  0  0  0  0  0  0  0  0  0  0  0
    4.3107    3.4557   -7.3154 F   0  0  0  0  0  0  0  0  0  0  0  0
    3.8559    2.0873   -9.6086 F   0  0  0  0  0  0  0  0  0  0  0  0
  1  2  1  0
  1  3  1  0
  2  7  1  0
  2 14  1  0
  2 15  1  0
  3  4  1  0
  3 16  1  0
  3 17  1  0
  4  5  1  0
  4 30  1  0
  4 31  1  0
  5  8  1  0
  5 18  1  0
  5 19  1  0
  6  7  1  0
  6  9  1  0
  6 32  1  0
  6 33  1  0
  7 22  1  0
  7 23  1  0
  8 10  1  0
  8 20  1  0
  8 21  1  0
  9 11  1  0
  9 36  1  0
  9 37  1  0
 10 12  1  0
 10 34  1  0
 10 35  1  0
 11 13  1  0
 11 28  1  0
 11 29  1  0
 12 13  1  0
 12 24  1  0
 12 25  1  0
 13 26  1  0
 13 27  1  0
M  CHG  1   1   1
M  RAD  1   1   2
M  END
$$$$

     RDKit          3D

 37 37  0  0  0  0  0  0  0  0999 V2000
    1.6235   -0.2101   -2.7418 S   0  0  0  0  0  2  0  0  0  0  0  0
    1.1384    1.0915   -4.3225 Si  0  0  0  0  0  4  0  0  0  0  0  0
    3.6573   -0.6952   -2.5428 Si  0  0  0  0  0  4  0  0  0  0  0  0
    4.9836    1.1167   -2.4595 Si  0  0  0  0  0  4  0  0  0  0  0  0
    6.9738    0.5712   -3.2582 Si  0  0  0  0  0  4  0  0  0  0  0  0
    3.3507    0.1675   -7.1290 Si  0  0  0  0  0  4  0  0  0  0  0  0
    1.3155    0.1328   -6.3303 Si  0  0  0  0  0  4  0  0  0  0  0  0
    8.0062    2.2447   -4.2615 Si  0  0  0  0  0  4  0  0  0  0  0  0
    3.6991    1.9001   -8.5246 Si  0  0  0  0  0  4  0  0  0  0  0  0
    6.9346    4.1503   -4.1686 Si  0  0  0  0  0  4  0  0  0  0  0  0
    5.8851    2.1495   -8.7612 Si  0  0  0  0  0  4  0  0  0  0  0  0
    5.6949    4.5722   -5.9684 Si  0  0  0  0  0  4  0  0  0  0  0  0
    6.6657    4.0093   -7.8482 Si  0  0  0  0  0  4  0  0  0  0  0  0
   -0.5199    1.4842   -4.1549 F   0  0  0  0  0  0  0  0  0  0  0  0
    1.9608    2.5543   -4.2801 F   0  0  0  0  0  0  0  0  0  0  0  0
    4.1976   -1.7752   -3.7351 F   0  0  0  0  0  0  0  0  0  0  0  0
    3.8660   -1.5054   -1.0617 F   0  0  0  0  0  0  0  0  0  0  0  0
    7.8940   -0.0484   -1.9596 F   0  0  0  0  0  0  0  0  0  0  0  0
    6.8615   -0.7167   -4.3731 F   0  0  0  0  0  0  0  0  0  0  0  0
    8.3457    1.8870   -5.8942 F   0  0  0  0  0  0  0  0  0  0  0  0
    9.5316    2.4329   -3.5247 F   0  0  0  0  0  0  0  0  0  0  0  0
    0.7787   -1.4543   -6.1950 F   0  0  0  0  0  0  0  0  0  0  0  0
    0.2677    0.9254   -7.4141 F   0  0  0  0  0  0  0  0  0  0  0  0
    5.4320    6.2575   -5.9805 F   0  0  0  0  0  0  0  0  0  0  0  0
    4.1703    3.8777   -5.8702 F   0  0  0  0  0  0  0  0  0  0  0  0
    8.3415    3.7907   -7.6032 F   0  0  0  0  0  0  0  0  0  0  0  0
    6.5245    5.2513   -8.9925 F   0  0  0  0  0  0  0  0  0  0  0  0
    6.7191    0.7998   -8.1685 F   0  0  0  0  0  0  0  0  0  0  0  0
    6.2447    2.2217  -10.4185 F   0  0  0  0  0  0  0  0  0  0  0  0
    5.1793    1.5792   -0.8364 F   0  0  0  0  0  0  0  0  0  0  0  0
    4.2932    2.4014   -3.2622 F   0  0  0  0  0  0  0  0  0  0  0  0
    3.6188   -1.2584   -8.0269 F   0  0  0  0  0  0  0  0  0  0  0  0
    4.4845    0.2599   -5.9201 F   0  0  0  0  0  0  0  0  0  0  0  0
    5.9710    4.2602   -2.7823 F   0  0  0  0  0  0  0  0  0  0  0  0
    8.0777    5.4137   -4.0453 F   0  0  0  0  0  0  0  0  0  0  0  0
    2.9218    3.2738   -8.0100 F   0  0  0  0  0  0  0  0  0  0  0  0
    2.9958    1.4455  -10.0075 F   0  0  0  0  0  0  0  0  0  0  0  0
  1  2  1  0
  1  3  1  0
  2  7  1  0
  2 14  1  0
  2 15  1  0
  3  4  1  0
  3 16  1  0
  3 17  1  0
  4  5  1  0
  4 30  1  0
  4 31  1  0
  5  8  1  0
  5 18  1  0
  5 19  1  0
  6  7  1  0
  6  9  1  0
  6 32  1  0
  6 33  1  0
  7 22  1  0
  7 23  1  0
  8 10  1  0
  8 20  1  0
  8 21  1  0
  9 11  1  0
  9 36  1  0
  9 37  1  0
 10 12  1  0
 10 34  1  0
 10 35  1  0
 11 13  1  0
 11 28  1  0
 11 29  1  0
 12 13  1  0
 12 24  1  0
 12 25  1  0
 13 26  1  0
 13 27  1  0
M  CHG  1   1   1
M  RAD  1   1   2
M  END
$$$$

     RDKit          3D

 37 37  0  0  0  0  0  0  0  0999 V2000
    1.6235   -0.2101   -2.7418 S   0  0  0  0  0  2  0  0  0  0  0  0
    3.7710   -0.4395   -2.5598 Si  0  0  0  0  0  4  0  0  0  0  0  0
    0.7474   -1.8824   -3.7214 Si  0  0  0  0  0  4  0  0  0  0  0  0
   -0.5339   -1.2720   -5.4448 Si  0  0  0  0  0  4  0  0  0  0  0  0
    0.0573    0.6732   -6.2905 Si  0  0  0  0  0  4  0  0  0  0  0  0
    6.8632    0.7874   -4.1547 Si  0  0  0  0  0  4  0  0  0  0  0  0
    4.6757    1.0184   -4.0081 Si  0  0  0  0  0  4  0  0  0  0  0  0
    1.1963    0.5083   -8.1732 Si  0  0  0  0  0  4  0  0  0  0  0  0
    7.4667   -0.8457   -5.5383 Si  0  0  0  0  0  4  0  0  0  0  0  0
    1.9523   -1.5267   -8.5684 Si  0  0  0  0  0  4  0  0  0  0  0  0
    5.7600   -1.6033   -6.7362 Si  0  0  0  0  0  4  0  0  0  0  0  0
    3.8435   -1.3429   -9.7835 Si  0  0  0  0  0  4  0  0  0  0  0  0
    5.4508   -0.3637   -8.5700 Si  0  0  0  0  0  4  0  0  0  0  0  0
    4.2537   -0.0897   -0.9745 F   0  0  0  0  0  0  0  0  0  0  0  0
    4.2399   -2.0106   -2.8925 F   0  0  0  0  0  0  0  0  0  0  0  0
    1.9605   -2.9390   -4.2441 F   0  0  0  0  0  0  0  0  0  0  0  0
   -0.1744   -2.7305   -2.5630 F   0  0  0  0  0  0  0  0  0  0  0  0
    0.9370    1.5243   -5.1031 F   0  0  0  0  0  0  0  0  0  0  0  0
   -1.3272    1.6229   -6.5971 F   0  0  0  0  0  0  0  0  0  0  0  0
    0.2722    1.0323   -9.5005 F   0  0  0  0  0  0  0  0  0  0  0  0
    2.5397    1.5555   -8.0707 F   0  0  0  0  0  0  0  0  0  0  0  0
    3.8924    0.8118   -5.4748 F   0  0  0  0  0  0  0  0  0  0  0  0
    4.3213    2.5667   -3.4280 F   0  0  0  0  0  0  0  0  0  0  0  0
    3.5619   -0.3759  -11.1245 F   0  0  0  0  0  0  0  0  0  0  0  0
    4.3717   -2.8778  -10.1851 F   0  0  0  0  0  0  0  0  0  0  0  0
    6.8540   -0.3715   -9.4871 F   0  0  0  0  0  0  0  0  0  0  0  0
    5.0736    1.2233   -8.2015 F   0  0  0  0  0  0  0  0  0  0  0  0
    4.3410   -1.6941   -5.8740 F   0  0  0  0  0  0  0  0  0  0  0  0
    6.1487   -3.1723   -7.2588 F   0  0  0  0  0  0  0  0  0  0  0  0
   -0.5378   -2.5117   -6.5763 F   0  0  0  0  0  0  0  0  0  0  0  0
   -2.1315   -1.1390   -4.8607 F   0  0  0  0  0  0  0  0  0  0  0  0
    7.5085    2.2506   -4.7496 F   0  0  0  0  0  0  0  0  0  0  0  0
    7.5417    0.5358   -2.6461 F   0  0  0  0  0  0  0  0  0  0  0  0
    0.8503   -2.3812   -9.5468 F   0  0  0  0  0  0  0  0  0  0  0  0
    2.2550   -2.4053   -7.1818 F   0  0  0  0  0  0  0  0  0  0  0  0
    8.1227   -2.1290   -4.6610 F   0  0  0  0  0  0  0  0  0  0  0  0
    8.6462   -0.2868   -6.6350 F   0  0  0  0  0  0  0  0  0  0  0  0
  1  2  1  0
  1  3  1  0
  2  7  1  0
  2 14  1  0
  2 15  1  0
  3  4  1  0
  3 16  1  0
  3 17  1  0
  4  5  1  0
  4 30  1  0
  4 31  1  0
  5  8  1  0
  5 18  1  0
  5 19  1  0
  6  7  1  0
  6  9  1  0
  6 32  1  0
  6 33  1  0
  7 22  1  0
  7 23  1  0
  8 10  1  0
  8 20  1  0
  8 21  1  0
  9 11  1  0
  9 36  1  0
  9 37  1  0
 10 12  1  0
 10 34  1  0
 10 35  1  0
 11 13  1  0
 11 28  1  0
 11 29  1  0
 12 13  1  0
 12 24  1  0
 12 25  1  0
 13 26  1  0
 13 27  1  0
M  CHG  1   1   1
M  RAD  1   1   2
M  END
$$$$

     RDKit          3D

 37 37  0  0  0  0  0  0  0  0999 V2000
    1.6235   -0.2101   -2.7418 S   0  0  0  0  0  2  0  0  0  0  0  0
    0.5690    0.0189   -4.5484 Si  0  0  0  0  0  4  0  0  0  0  0  0
    3.5397    0.6477   -2.6818 Si  0  0  0  0  0  4  0  0  0  0  0  0
    3.5478    2.8113   -3.2886 Si  0  0  0  0  0  4  0  0  0  0  0  0
    5.5265    3.2935   -4.1538 Si  0  0  0  0  0  4  0  0  0  0  0  0
    3.0742   -0.2721   -7.2434 Si  0  0  0  0  0  4  0  0  0  0  0  0
    1.3984   -1.2214   -6.2083 Si  0  0  0  0  0  4  0  0  0  0  0  0
    5.4458    4.8516   -5.7156 Si  0  0  0  0  0  4  0  0  0  0  0  0
    2.4303    0.8190   -9.1051 Si  0  0  0  0  0  4  0  0  0  0  0  0
    3.4590    5.7146   -6.0259 Si  0  0  0  0  0  4  0  0  0  0  0  0
    4.0674    2.1896   -9.6867 Si  0  0  0  0  0  4  0  0  0  0  0  0
    2.3222    4.7753   -7.6931 Si  0  0  0  0  0  4  0  0  0  0  0  0
    3.5542    4.3300   -9.4472 Si  0  0  0  0  0  4  0  0  0  0  0  0
   -1.0124   -0.5819   -4.2830 F   0  0  0  0  0  0  0  0  0  0  0  0
    0.3762    1.6156   -5.0294 F   0  0  0  0  0  0  0  0  0  0  0  0
    4.6828   -0.2277   -3.5800 F   0  0  0  0  0  0  0  0  0  0  0  0
    4.0895    0.6034   -1.0726 F   0  0  0  0  0  0  0  0  0  0  0  0
    6.5518    3.7464   -2.8652 F   0  0  0  0  0  0  0  0  0  0  0  0
    6.2585    1.9096   -4.8344 F   0  0  0  0  0  0  0  0  0  0  0  0
    6.0317    4.2758   -7.2103 F   0  0  0  0  0  0  0  0  0  0  0  0
    6.5235    6.0941   -5.2684 F   0  0  0  0  0  0  0  0  0  0  0  0
    1.8837   -2.6946   -5.5606 F   0  0  0  0  0  0  0  0  0  0  0  0
    0.1553   -1.5502   -7.3250 F   0  0  0  0  0  0  0  0  0  0  0  0
    1.1250    5.9024   -8.1467 F   0  0  0  0  0  0  0  0  0  0  0  0
    1.4890    3.4032   -7.2037 F   0  0  0  0  0  0  0  0  0  0  0  0
    5.0221    5.1992   -9.3720 F   0  0  0  0  0  0  0  0  0  0  0  0
    2.7854    4.8441  -10.8672 F   0  0  0  0  0  0  0  0  0  0  0  0
    5.4940    1.8224   -8.8510 F   0  0  0  0  0  0  0  0  0  0  0  0
    4.4197    1.9447  -11.3289 F   0  0  0  0  0  0  0  0  0  0  0  0
    3.3341    3.7705   -1.9027 F   0  0  0  0  0  0  0  0  0  0  0  0
    2.2885    3.1472   -4.3243 F   0  0  0  0  0  0  0  0  0  0  0  0
    4.1810   -1.4767   -7.7285 F   0  0  0  0  0  0  0  0  0  0  0  0
    3.8616    0.8172   -6.2693 F   0  0  0  0  0  0  0  0  0  0  0  0
    2.5286    5.6689   -4.6135 F   0  0  0  0  0  0  0  0  0  0  0  0
    3.6372    7.3682   -6.4156 F   0  0  0  0  0  0  0  0  0  0  0  0
    0.9662    1.5750   -8.9029 F   0  0  0  0  0  0  0  0  0  0  0  0
    2.2200   -0.3825  -10.2935 F   0  0  0  0  0  0  0  0  0  0  0  0
  1  2  1  0
  1  3  1  0
  2  7  1  0
  2 14  1  0
  2 15  1  0
  3  4  1  0
  3 16  1  0
  3 17  1  0
  4  5  1  0
  4 30  1  0
  4 31  1  0
  5  8  1  0
  5 18  1  0
  5 19  1  0
  6  7  1  0
  6  9  1  0
  6 32  1  0
  6 33  1  0
  7 22  1  0
  7 23  1  0
  8 10  1  0
  8 20  1  0
  8 21  1  0
  9 11  1  0
  9 36  1  0
  9 37  1  0
 10 12  1  0
 10 34  1  0
 10 35  1  0
 11 13  1  0
 11 28  1  0
 11 29  1  0
 12 13  1  0
 12 24  1  0
 12 25  1  0
 13 26  1  0
 13 27  1  0
M  CHG  1   1   1
M  RAD  1   1   2
M  END
$$$$
