
     RDKit          3D

 37 37  0  0  0  0  0  0  0  0999 V2000
   -0.0445   -0.0851   -3.2314 S   0  0  0  0  0  2  0  0  0  0  0  0
   -0.9169    1.4401   -4.4242 Si  0  0  0  0  0  4  0  0  0  0  0  0
    1.4145   -1.2228   -4.2750 Si  0  0  0  0  0  4  0  0  0  0  0  0
    2.4484   -0.0470   -5.8367 Si  0  0  0  0  0  4  0  0  0  0  0  0
    4.4811   -0.9088   -6.3021 Si  0  0  0  0  0  4  0  0  0  0  0  0
   -1.4554    1.7190   -7.9825 Si  0  0  0  0  0  4  0  0  0  0  0  0
   -2.0041    0.5710   -6.2005 Si  0  0  0  0  0  4  0  0  0  0  0  0
    5.1488    0.0690   -8.1996 Si  0  0  0  0  0  4  0  0  0  0  0  0
   -1.6245    0.6347   -9.8812 Si  0  0  0  0  0  4  0  0  0  0  0  0
    3.5411    0.0446   -9.7331 Si  0  0  0  0  0  4  0  0  0  0  0  0
   -0.9746   -1.4561   -9.8385 Si  0  0  0  0  0  4  0  0  0  0  0  0
    2.6716   -1.9729  -10.0086 Si  0  0  0  0  0  4  0  0  0  0  0  0
    0.7821   -1.7994  -11.2097 Si  0  0  0  0  0  4  0  0  0  0  0  0
    0.2415    2.5595   -4.9334 F   0  0  0  0  0  0  0  0  0  0  0  0
   -2.0370    2.2778   -3.4846 F   0  0  0  0  0  0  0  0  0  0  0  0
    0.6385   -2.5827   -4.9457 F   0  0  0  0  0  0  0  0  0  0  0  0
    2.5971   -1.8412   -3.2192 F   0  0  0  0  0  0  0  0  0  0  0  0
    5.5655   -0.5925   -5.0745 F   0  0  0  0  0  0  0  0  0  0  0  0
    4.3247   -2.5597   -6.6125 F   0  0  0  0  0  0  0  0  0  0  0  0
    6.5686   -0.5857   -8.7772 F   0  0  0  0  0  0  0  0  0  0  0  0
    5.4653    1.7024   -7.8210 F   0  0  0  0  0  0  0  0  0  0  0  0
   -3.6830    0.7062   -5.9564 F   0  0  0  0  0  0  0  0  0  0  0  0
   -1.6286   -1.0410   -6.2609 F   0  0  0  0  0  0  0  0  0  0  0  0
    3.7563   -2.8891  -10.9450 F   0  0  0  0  0  0  0  0  0  0  0  0
    2.4238   -2.7888   -8.5793 F   0  0  0  0  0  0  0  0  0  0  0  0
    0.5883   -3.2574  -12.0572 F   0  0  0  0  0  0  0  0  0  0  0  0
    0.9075   -0.5664  -12.3288 F   0  0  0  0  0  0  0  0  0  0  0  0
   -2.2362   -2.4413  -10.4319 F   0  0  0  0  0  0  0  0  0  0  0  0
   -0.5539   -2.0369   -8.3479 F   0  0  0  0  0  0  0  0  0  0  0  0
    2.6484    1.5542   -5.4223 F   0  0  0  0  0  0  0  0  0  0  0  0
    1.5791   -0.2155   -7.2837 F   0  0  0  0  0  0  0  0  0  0  0  0
   -2.4744    3.0890   -8.0687 F   0  0  0  0  0  0  0  0  0  0  0  0
    0.1141    2.3570   -7.7695 F   0  0  0  0  0  0  0  0  0  0  0  0
    2.3211    1.1315   -9.3905 F   0  0  0  0  0  0  0  0  0  0  0  0
    4.2394    0.5171  -11.2109 F   0  0  0  0  0  0  0  0  0  0  0  0
   -3.2344    0.7666  -10.4363 F   0  0  0  0  0  0  0  0  0  0  0  0
   -0.6875    1.4640  -11.0454 F   0  0  0  0  0  0  0  0  0  0  0  0
  1  2  1  0
  1  3  1  0
  2  7  1  0
  2 14  1  0
  2 15  1  0
  3  4  1  0
  3 16  1  0
  3 17  1  0
  4  5  1  0
  4 30  1  0
  4 31  1  0
  5  8  1  0
  5 18  1  0
  5 19  1  0
  6  7  1  0
  6  9  1  0
  6 32  1  0
  6 33  1  0
  7 22  1  0
  7 23  1  0
  8 10  1  0
  8 20  1  0
  8 21  1  0
  9 11  1  0
  9 36  1  0
  9 37  1  0
 10 12  1  0
 10 34  1  0
 10 35  1  0
 11 13  1  0
 11 28  1  0
 11 29  1  0
 12 13  1  0
 12 24  1  0
 12 25  1  0
 13 26  1  0
 13 27  1  0
M  CHG  1   1   1
M  RAD  1   1   2
M  END
$$$$

     RDKit          3D

 37 37  0  0  0  0  0  0  0  0999 V2000
   -0.0445   -0.0851   -3.2314 S   0  0  0  0  0  2  0  0  0  0  0  0
    1.5349    0.5075   -4.5345 Si  0  0  0  0  0  4  0  0  0  0  0  0
   -1.9489    0.6415   -3.8471 Si  0  0  0  0  0  4  0  0  0  0  0  0
   -1.9807    2.8102   -4.2134 Si  0  0  0  0  0  4  0  0  0  0  0  0
   -1.6821    3.3557   -6.3351 Si  0  0  0  0  0  4  0  0  0  0  0  0
    3.2109   -0.1913   -7.7170 Si  0  0  0  0  0  4  0  0  0  0  0  0
    1.3264   -0.4141   -6.5546 Si  0  0  0  0  0  4  0  0  0  0  0  0
   -3.0037    2.2543   -7.7186 Si  0  0  0  0  0  4  0  0  0  0  0  0
    2.9690   -1.1833   -9.7013 Si  0  0  0  0  0  4  0  0  0  0  0  0
   -2.5233    2.8834   -9.8111 Si  0  0  0  0  0  4  0  0  0  0  0  0
    0.8410   -1.1955  -10.3594 Si  0  0  0  0  0  4  0  0  0  0  0  0
   -1.9380    1.1262  -11.0587 Si  0  0  0  0  0  4  0  0  0  0  0  0
    0.2765    0.8498  -11.0649 Si  0  0  0  0  0  4  0  0  0  0  0  0
    1.6734    2.1819   -4.6181 F   0  0  0  0  0  0  0  0  0  0  0  0
    2.9801   -0.0711   -3.8794 F   0  0  0  0  0  0  0  0  0  0  0  0
   -2.5155   -0.2303   -5.1719 F   0  0  0  0  0  0  0  0  0  0  0  0
   -3.0328    0.3122   -2.5665 F   0  0  0  0  0  0  0  0  0  0  0  0
   -0.0875    3.1613   -6.8405 F   0  0  0  0  0  0  0  0  0  0  0  0
   -2.0338    5.0188   -6.4932 F   0  0  0  0  0  0  0  0  0  0  0  0
   -2.9213    0.6030   -7.5472 F   0  0  0  0  0  0  0  0  0  0  0  0
   -4.6116    2.7203   -7.3880 F   0  0  0  0  0  0  0  0  0  0  0  0
    0.0677    0.2237   -7.4287 F   0  0  0  0  0  0  0  0  0  0  0  0
    1.0442   -2.0639   -6.3413 F   0  0  0  0  0  0  0  0  0  0  0  0
   -2.5005    1.3751  -12.6219 F   0  0  0  0  0  0  0  0  0  0  0  0
   -2.7236   -0.2302  -10.4447 F   0  0  0  0  0  0  0  0  0  0  0  0
    0.8875    1.0094  -12.6498 F   0  0  0  0  0  0  0  0  0  0  0  0
    1.0517    2.0147  -10.1337 F   0  0  0  0  0  0  0  0  0  0  0  0
   -0.1367   -1.7033   -9.0864 F   0  0  0  0  0  0  0  0  0  0  0  0
    0.6780   -2.3230  -11.6026 F   0  0  0  0  0  0  0  0  0  0  0  0
   -3.4937    3.4314   -3.7266 F   0  0  0  0  0  0  0  0  0  0  0  0
   -0.8214    3.6140   -3.2896 F   0  0  0  0  0  0  0  0  0  0  0  0
    4.4522   -0.9320   -6.8293 F   0  0  0  0  0  0  0  0  0  0  0  0
    3.5871    1.4526   -7.9300 F   0  0  0  0  0  0  0  0  0  0  0  0
   -1.2277    3.9672   -9.8377 F   0  0  0  0  0  0  0  0  0  0  0  0
   -3.8451    3.6893  -10.5172 F   0  0  0  0  0  0  0  0  0  0  0  0
    3.4949   -2.7980   -9.5833 F   0  0  0  0  0  0  0  0  0  0  0  0
    3.8783   -0.4196  -10.8950 F   0  0  0  0  0  0  0  0  0  0  0  0
  1  2  1  0
  1  3  1  0
  2  7  1  0
  2 14  1  0
  2 15  1  0
  3  4  1  0
  3 16  1  0
  3 17  1  0
  4  5  1  0
  4 30  1  0
  4 31  1  0
  5  8  1  0
  5 18  1  0
  5 19  1  0
  6  7  1  0
  6  9  1  0
  6 32  1  0
  6 33  1  0
  7 22  1  0
  7 23  1  0
  8 10  1  0
  8 20  1  0
  8 21  1  0
  9 11  1  0
  9 36  1  0
  9 37  1  0
 10 12  1  0
 10 34  1  0
 10 35  1  0
 11 13  1  0
 11 28  1  0
 11 29  1  0
 12 13  1  0
 12 24  1  0
 12 25  1  0
 13 26  1  0
 13 27  1  0
M  CHG  1   1   1
M  RAD  1   1   2
M  END
$$$$

     RDKit          3D

 37 37  0  0  0  0  0  0  0  0999 V2000
   -0.0445   -0.0851   -3.2314 S   0  0  0  0  0  2  0  0  0  0  0  0
    1.9723    0.3681   -3.4712 Si  0  0  0  0  0  4  0  0  0  0  0  0
   -0.7592   -1.8076   -4.1879 Si  0  0  0  0  0  4  0  0  0  0  0  0
   -2.2630   -1.1881   -5.7241 Si  0  0  0  0  0  4  0  0  0  0  0  0
   -2.3543   -2.6429   -7.4038 Si  0  0  0  0  0  4  0  0  0  0  0  0
    2.4581    1.3880   -6.9640 Si  0  0  0  0  0  4  0  0  0  0  0  0
    2.8693   -0.1812   -5.3993 Si  0  0  0  0  0  4  0  0  0  0  0  0
   -0.4661   -2.7054   -8.5573 Si  0  0  0  0  0  4  0  0  0  0  0  0
    3.2648    0.7874   -8.9274 Si  0  0  0  0  0  4  0  0  0  0  0  0
    0.6390   -4.6112   -8.1869 Si  0  0  0  0  0  4  0  0  0  0  0  0
    4.4128   -1.0963   -8.8625 Si  0  0  0  0  0  4  0  0  0  0  0  0
    2.8121   -4.3968   -8.5324 Si  0  0  0  0  0  4  0  0  0  0  0  0
    3.2935   -2.7386   -9.9231 Si  0  0  0  0  0  4  0  0  0  0  0  0
    2.1834    2.0509   -3.2619 F   0  0  0  0  0  0  0  0  0  0  0  0
    2.8881   -0.3573   -2.2273 F   0  0  0  0  0  0  0  0  0  0  0  0
    0.4270   -2.7866   -4.8439 F   0  0  0  0  0  0  0  0  0  0  0  0
   -1.6062   -2.7557   -3.0463 F   0  0  0  0  0  0  0  0  0  0  0  0
   -2.7385   -4.1917   -6.8364 F   0  0  0  0  0  0  0  0  0  0  0  0
   -3.5987   -2.1650   -8.4324 F   0  0  0  0  0  0  0  0  0  0  0  0
   -0.7938   -2.6420  -10.2305 F   0  0  0  0  0  0  0  0  0  0  0  0
    0.4600   -1.3594   -8.1912 F   0  0  0  0  0  0  0  0  0  0  0  0
    4.5663   -0.1856   -5.1936 F   0  0  0  0  0  0  0  0  0  0  0  0
    2.4395   -1.6845   -5.9565 F   0  0  0  0  0  0  0  0  0  0  0  0
    3.4179   -5.8368   -9.2143 F   0  0  0  0  0  0  0  0  0  0  0  0
    3.6488   -4.1972   -7.0635 F   0  0  0  0  0  0  0  0  0  0  0  0
    4.1501   -3.2778  -11.2656 F   0  0  0  0  0  0  0  0  0  0  0  0
    1.8252   -2.0970  -10.4928 F   0  0  0  0  0  0  0  0  0  0  0  0
    4.7379   -1.6179   -7.3000 F   0  0  0  0  0  0  0  0  0  0  0  0
    5.9166   -0.9227   -9.6467 F   0  0  0  0  0  0  0  0  0  0  0  0
   -3.7917   -1.1175   -5.0087 F   0  0  0  0  0  0  0  0  0  0  0  0
   -1.8441    0.3145   -6.3109 F   0  0  0  0  0  0  0  0  0  0  0  0
    0.8159    1.6784   -7.0302 F   0  0  0  0  0  0  0  0  0  0  0  0
    3.2249    2.8254   -6.4889 F   0  0  0  0  0  0  0  0  0  0  0  0
    0.0458   -5.7608   -9.2988 F   0  0  0  0  0  0  0  0  0  0  0  0
    0.2760   -5.1908   -6.6548 F   0  0  0  0  0  0  0  0  0  0  0  0
    4.2617    2.0007   -9.5897 F   0  0  0  0  0  0  0  0  0  0  0  0
    1.9716    0.5888  -10.0061 F   0  0  0  0  0  0  0  0  0  0  0  0
  1  2  1  0
  1  3  1  0
  2  7  1  0
  2 14  1  0
  2 15  1  0
  3  4  1  0
  3 16  1  0
  3 17  1  0
  4  5  1  0
  4 30  1  0
  4 31  1  0
  5  8  1  0
  5 18  1  0
  5 19  1  0
  6  7  1  0
  6  9  1  0
  6 32  1  0
  6 33  1  0
  7 22  1  0
  7 23  1  0
  8 10  1  0
  8 20  1  0
  8 21  1  0
  9 11  1  0
  9 36  1  0
  9 37  1  0
 10 12  1  0
 10 34  1  0
 10 35  1  0
 11 13  1  0
 11 28  1  0
 11 29  1  0
 12 13  1  0
 12 24  1  0
 12 25  1  0
 13 26  1  0
 13 27  1  0
M  CHG  1   1   1
M  RAD  1   1   2
M  END
$$$$

     RDKit          3D

 37 37  0  0  0  0  0  0  0  0999 V2000
   -0.0445   -0.0851   -3.2314 S   0  0  0  0  0  2  0  0  0  0  0  0
    1.2403   -0.2636   -4.8792 Si  0  0  0  0  0  4  0  0  0  0  0  0
   -2.0731    0.2498   -3.6756 Si  0  0  0  0  0  4  0  0  0  0  0  0
   -2.3715    1.4789   -5.5120 Si  0  0  0  0  0  4  0  0  0  0  0  0
   -4.4510    1.3017   -6.2947 Si  0  0  0  0  0  4  0  0  0  0  0  0
    2.4701   -2.2453   -7.6309 Si  0  0  0  0  0  4  0  0  0  0  0  0
    1.1044   -2.2410   -5.9018 Si  0  0  0  0  0  4  0  0  0  0  0  0
   -4.3629    1.3436   -8.5399 Si  0  0  0  0  0  4  0  0  0  0  0  0
    1.4216   -1.9343   -9.5711 Si  0  0  0  0  0  4  0  0  0  0  0  0
   -3.2535   -0.4327   -9.2699 Si  0  0  0  0  0  4  0  0  0  0  0  0
    1.6784    0.1274  -10.3162 Si  0  0  0  0  0  4  0  0  0  0  0  0
   -1.9481    0.0033  -10.9988 Si  0  0  0  0  0  4  0  0  0  0  0  0
   -0.2087    1.2492  -10.5359 Si  0  0  0  0  0  4  0  0  0  0  0  0
    2.8476   -0.1486   -4.3029 F   0  0  0  0  0  0  0  0  0  0  0  0
    1.0915    1.0149   -5.9920 F   0  0  0  0  0  0  0  0  0  0  0  0
   -2.7952    1.0449   -2.3697 F   0  0  0  0  0  0  0  0  0  0  0  0
   -2.8830   -1.2132   -3.8839 F   0  0  0  0  0  0  0  0  0  0  0  0
   -5.4522    2.5036   -5.7088 F   0  0  0  0  0  0  0  0  0  0  0  0
   -5.0833   -0.2061   -5.8609 F   0  0  0  0  0  0  0  0  0  0  0  0
   -3.6533    2.7859   -9.0662 F   0  0  0  0  0  0  0  0  0  0  0  0
   -5.9717    1.3318   -9.0896 F   0  0  0  0  0  0  0  0  0  0  0  0
   -0.4723   -2.6394   -6.3046 F   0  0  0  0  0  0  0  0  0  0  0  0
    1.6274   -3.4150   -4.7780 F   0  0  0  0  0  0  0  0  0  0  0  0
   -1.4194   -1.4703  -11.6453 F   0  0  0  0  0  0  0  0  0  0  0  0
   -2.9067    0.7295  -12.2045 F   0  0  0  0  0  0  0  0  0  0  0  0
   -0.0009    2.3672  -11.8123 F   0  0  0  0  0  0  0  0  0  0  0  0
   -0.4512    2.2277   -9.1603 F   0  0  0  0  0  0  0  0  0  0  0  0
    2.5372    0.1664  -11.7916 F   0  0  0  0  0  0  0  0  0  0  0  0
    2.6626    0.9670   -9.2015 F   0  0  0  0  0  0  0  0  0  0  0  0
   -1.9514    3.0855   -5.2726 F   0  0  0  0  0  0  0  0  0  0  0  0
   -1.3502    0.7842   -6.6892 F   0  0  0  0  0  0  0  0  0  0  0  0
    3.6044   -0.9805   -7.4696 F   0  0  0  0  0  0  0  0  0  0  0  0
    3.3754   -3.6795   -7.6342 F   0  0  0  0  0  0  0  0  0  0  0  0
   -2.4350   -1.1215   -7.9906 F   0  0  0  0  0  0  0  0  0  0  0  0
   -4.4130   -1.5737   -9.7922 F   0  0  0  0  0  0  0  0  0  0  0  0
    2.1666   -2.9855  -10.6897 F   0  0  0  0  0  0  0  0  0  0  0  0
   -0.1873   -2.4142   -9.4989 F   0  0  0  0  0  0  0  0  0  0  0  0
  1  2  1  0
  1  3  1  0
  2  7  1  0
  2 14  1  0
  2 15  1  0
  3  4  1  0
  3 16  1  0
  3 17  1  0
  4  5  1  0
  4 30  1  0
  4 31  1  0
  5  8  1  0
  5 18  1  0
  5 19  1  0
  6  7  1  0
  6  9  1  0
  6 32  1  0
  6 33  1  0
  7 22  1  0
  7 23  1  0
  8 10  1  0
  8 20  1  0
  8 21  1  0
  9 11  1  0
  9 36  1  0
  9 37  1  0
 10 12  1  0
 10 34  1  0
 10 35  1  0
 11 13  1  0
 11 28  1  0
 11 29  1  0
 12 13  1  0
 12 24  1  0
 12 25  1  0
 13 26  1  0
 13 27  1  0
M  CHG  1   1   1
M  RAD  1   1   2
M  END
$$$$

     RDKit          3D

 37 37  0  0  0  0  0  0  0  0999 V2000
   -0.0445   -0.0851   -3.2314 S   0  0  0  0  0  2  0  0  0  0  0  0
   -1.5311   -1.0335   -4.4148 Si  0  0  0  0  0  4  0  0  0  0  0  0
    0.9954    1.4456   -4.2745 Si  0  0  0  0  0  4  0  0  0  0  0  0
   -0.2561    2.4234   -5.8133 Si  0  0  0  0  0  4  0  0  0  0  0  0
    0.4823    4.5061   -6.2700 Si  0  0  0  0  0  4  0  0  0  0  0  0
   -1.8206   -1.5571   -7.9745 Si  0  0  0  0  0  4  0  0  0  0  0  0
   -0.6221   -2.0540   -6.2106 Si  0  0  0  0  0  4  0  0  0  0  0  0
   -0.5544    5.1325   -8.1502 Si  0  0  0  0  0  4  0  0  0  0  0  0
   -0.7508   -1.6477   -9.8867 Si  0  0  0  0  0  4  0  0  0  0  0  0
   -0.4560    3.5418   -9.6983 Si  0  0  0  0  0  4  0  0  0  0  0  0
    1.2997   -0.8793   -9.8617 Si  0  0  0  0  0  4  0  0  0  0  0  0
    1.6046    2.7919  -10.0045 Si  0  0  0  0  0  4  0  0  0  0  0  0
    1.5256    0.9058  -11.2207 Si  0  0  0  0  0  4  0  0  0  0  0  0
   -2.7210    0.0630   -4.9009 F   0  0  0  0  0  0  0  0  0  0  0  0
   -2.2921   -2.2077   -3.4761 F   0  0  0  0  0  0  0  0  0  0  0  0
    2.3895    0.7546   -4.9674 F   0  0  0  0  0  0  0  0  0  0  0  0
    1.5573    2.6528   -3.2150 F   0  0  0  0  0  0  0  0  0  0  0  0
    0.1188    5.5601   -5.0291 F   0  0  0  0  0  0  0  0  0  0  0  0
    2.1357    4.4473   -6.6003 F   0  0  0  0  0  0  0  0  0  0  0  0
    0.0110    6.5923   -8.7222 F   0  0  0  0  0  0  0  0  0  0  0  0
   -2.1987    5.3515   -7.7504 F   0  0  0  0  0  0  0  0  0  0  0  0
   -0.6580   -3.7399   -5.9803 F   0  0  0  0  0  0  0  0  0  0  0  0
    0.9649   -1.5861   -6.2858 F   0  0  0  0  0  0  0  0  0  0  0  0
    2.4461    3.9353  -10.9413 F   0  0  0  0  0  0  0  0  0  0  0  0
    2.4502    2.5793   -8.5868 F   0  0  0  0  0  0  0  0  0  0  0  0
    2.9822    0.8032  -12.0863 F   0  0  0  0  0  0  0  0  0  0  0  0
    0.2743    0.9696  -12.3246 F   0  0  0  0  0  0  0  0  0  0  0  0
    2.3486   -2.0771  -10.4776 F   0  0  0  0  0  0  0  0  0  0  0  0
    1.8730   -0.4384   -8.3740 F   0  0  0  0  0  0  0  0  0  0  0  0
   -1.8611    2.5277   -5.3792 F   0  0  0  0  0  0  0  0  0  0  0  0
   -0.0551    1.5774   -7.2700 F   0  0  0  0  0  0  0  0  0  0  0  0
   -3.1308   -2.6524   -8.0545 F   0  0  0  0  0  0  0  0  0  0  0  0
   -2.5449   -0.0287   -7.7401 F   0  0  0  0  0  0  0  0  0  0  0  0
   -1.4670    2.2586   -9.3546 F   0  0  0  0  0  0  0  0  0  0  0  0
   -0.9851    4.2243  -11.1643 F   0  0  0  0  0  0  0  0  0  0  0  0
   -0.7967   -3.2578  -10.4549 F   0  0  0  0  0  0  0  0  0  0  0  0
   -1.6460   -0.7501  -11.0330 F   0  0  0  0  0  0  0  0  0  0  0  0
  1  2  1  0
  1  3  1  0
  2  7  1  0
  2 14  1  0
  2 15  1  0
  3  4  1  0
  3 16  1  0
  3 17  1  0
  4  5  1  0
  4 30  1  0
  4 31  1  0
  5  8  1  0
  5 18  1  0
  5 19  1  0
  6  7  1  0
  6  9  1  0
  6 32  1  0
  6 33  1  0
  7 22  1  0
  7 23  1  0
  8 10  1  0
  8 20  1  0
  8 21  1  0
  9 11  1  0
  9 36  1  0
  9 37  1  0
 10 12  1  0
 10 34  1  0
 10 35  1  0
 11 13  1  0
 11 28  1  0
 11 29  1  0
 12 13  1  0
 12 24  1  0
 12 25  1  0
 13 26  1  0
 13 27  1  0
M  CHG  1   1   1
M  RAD  1   1   2
M  END
$$$$

     RDKit          3D

 37 37  0  0  0  0  0  0  0  0999 V2000
   -0.0445   -0.0851   -3.2314 S   0  0  0  0  0  2  0  0  0  0  0  0
    0.2368    1.9645   -3.4563 Si  0  0  0  0  0  4  0  0  0  0  0  0
    1.3104   -1.3505   -4.2089 Si  0  0  0  0  0  4  0  0  0  0  0  0
    0.1909   -2.5286   -5.7465 Si  0  0  0  0  0  4  0  0  0  0  0  0
    1.5082   -3.1104   -7.4412 Si  0  0  0  0  0  4  0  0  0  0  0  0
   -0.5744    2.8063   -6.9360 Si  0  0  0  0  0  4  0  0  0  0  0  0
    1.0512    2.6279   -5.3852 Si  0  0  0  0  0  4  0  0  0  0  0  0
    2.2205   -1.3545   -8.5856 Si  0  0  0  0  0  4  0  0  0  0  0  0
    0.2560    3.3675   -8.9012 Si  0  0  0  0  0  4  0  0  0  0  0  0
    4.3956   -0.9913   -8.2288 Si  0  0  0  0  0  4  0  0  0  0  0  0
    2.4231    3.7812   -8.8495 Si  0  0  0  0  0  4  0  0  0  0  0  0
    4.9546    1.1216   -8.5609 Si  0  0  0  0  0  4  0  0  0  0  0  0
    3.5602    2.1658   -9.9324 Si  0  0  0  0  0  4  0  0  0  0  0  0
   -1.2631    2.7507   -3.2288 F   0  0  0  0  0  0  0  0  0  0  0  0
    1.2470    2.5571   -2.2150 F   0  0  0  0  0  0  0  0  0  0  0  0
    2.6382   -0.5778   -4.8686 F   0  0  0  0  0  0  0  0  0  0  0  0
    1.9097   -2.4859   -3.0813 F   0  0  0  0  0  0  0  0  0  0  0  0
    2.8281   -4.0182   -6.8916 F   0  0  0  0  0  0  0  0  0  0  0  0
    0.6162   -4.0994   -8.4714 F   0  0  0  0  0  0  0  0  0  0  0  0
    2.0333   -1.6251  -10.2598 F   0  0  0  0  0  0  0  0  0  0  0  0
    1.2878   -0.0182   -8.2012 F   0  0  0  0  0  0  0  0  0  0  0  0
    1.6523    4.2137   -5.1708 F   0  0  0  0  0  0  0  0  0  0  0  0
    2.3039    1.7027   -5.9597 F   0  0  0  0  0  0  0  0  0  0  0  0
    6.5104    1.1895   -9.2542 F   0  0  0  0  0  0  0  0  0  0  0  0
    5.0725    1.9629   -7.0859 F   0  0  0  0  0  0  0  0  0  0  0  0
    4.3553    2.7900  -11.2758 F   0  0  0  0  0  0  0  0  0  0  0  0
    2.4398    1.0207  -10.5030 F   0  0  0  0  0  0  0  0  0  0  0  0
    3.0376    3.8896   -7.2906 F   0  0  0  0  0  0  0  0  0  0  0  0
    2.7822    5.2568   -9.6241 F   0  0  0  0  0  0  0  0  0  0  0  0
   -0.4061   -3.9412   -5.0382 F   0  0  0  0  0  0  0  0  0  0  0  0
   -1.0737   -1.6043   -6.3159 F   0  0  0  0  0  0  0  0  0  0  0  0
   -1.4230    1.3710   -7.0077 F   0  0  0  0  0  0  0  0  0  0  0  0
   -1.6477    4.0247   -6.4425 F   0  0  0  0  0  0  0  0  0  0  0  0
    5.2555   -1.9408   -9.3553 F   0  0  0  0  0  0  0  0  0  0  0  0
    4.8227   -1.5474   -6.7045 F   0  0  0  0  0  0  0  0  0  0  0  0
   -0.5355    4.7322   -9.5461 F   0  0  0  0  0  0  0  0  0  0  0  0
   -0.0201    2.0959   -9.9885 F   0  0  0  0  0  0  0  0  0  0  0  0
  1  2  1  0
  1  3  1  0
  2  7  1  0
  2 14  1  0
  2 15  1  0
  3  4  1  0
  3 16  1  0
  3 17  1  0
  4  5  1  0
  4 30  1  0
  4 31  1  0
  5  8  1  0
  5 18  1  0
  5 19  1  0
  6  7  1  0
  6  9  1  0
  6 32  1  0
  6 33  1  0
  7 22  1  0
  7 23  1  0
  8 10  1  0
  8 20  1  0
  8 21  1  0
  9 11  1  0
  9 36  1  0
  9 37  1  0
 10 12  1  0
 10 34  1  0
 10 35  1  0
 11 13  1  0
 11 28  1  0
 11 29  1  0
 12 13  1  0
 12 24  1  0
 12 25  1  0
 13 26  1  0
 13 27  1  0
M  CHG  1   1   1
M  RAD  1   1   2
M  END
$$$$
