
     RDKit          3D

 37 37  0  0  0  0  0  0  0  0999 V2000
   -0.1644    0.1664    3.9163 S   0  0  0  0  0  2  0  0  0  0  0  0
   -0.9162   -1.5864    4.9038 Si  0  0  0  0  0  4  0  0  0  0  0  0
    0.1084    1.7815    5.2991 Si  0  0  0  0  0  4  0  0  0  0  0  0
   -1.8221    2.7660    5.8012 Si  0  0  0  0  0  4  0  0  0  0  0  0
   -1.9485    3.2711    7.9701 Si  0  0  0  0  0  4  0  0  0  0  0  0
   -0.2245   -3.2594    8.1183 Si  0  0  0  0  0  4  0  0  0  0  0  0
    0.6499   -2.3767    6.2467 Si  0  0  0  0  0  4  0  0  0  0  0  0
   -1.1852    1.5064    9.1389 Si  0  0  0  0  0  4  0  0  0  0  0  0
   -2.3127   -3.8428    7.8842 Si  0  0  0  0  0  4  0  0  0  0  0  0
   -2.0138    1.4543   11.1799 Si  0  0  0  0  0  4  0  0  0  0  0  0
   -3.7740   -2.5929    8.9600 Si  0  0  0  0  0  4  0  0  0  0  0  0
   -3.7678    0.0987   11.3654 Si  0  0  0  0  0  4  0  0  0  0  0  0
   -3.1813   -2.0404   11.0017 Si  0  0  0  0  0  4  0  0  0  0  0  0
   -2.3551   -1.2918    5.6915 F   0  0  0  0  0  0  0  0  0  0  0  0
   -1.2137   -2.7429    3.6941 F   0  0  0  0  0  0  0  0  0  0  0  0
    1.0745    2.9466    4.5105 F   0  0  0  0  0  0  0  0  0  0  0  0
    0.9544    1.3024    6.6691 F   0  0  0  0  0  0  0  0  0  0  0  0
   -1.0434    4.6164    8.3638 F   0  0  0  0  0  0  0  0  0  0  0  0
   -3.5764    3.4583    8.3661 F   0  0  0  0  0  0  0  0  0  0  0  0
   -1.5252    0.1503    8.2355 F   0  0  0  0  0  0  0  0  0  0  0  0
    0.5069    1.6928    9.2547 F   0  0  0  0  0  0  0  0  0  0  0  0
    1.7207   -1.1292    6.6203 F   0  0  0  0  0  0  0  0  0  0  0  0
    1.5565   -3.5544    5.4129 F   0  0  0  0  0  0  0  0  0  0  0  0
   -4.3999    0.2730   12.9133 F   0  0  0  0  0  0  0  0  0  0  0  0
   -4.9854    0.5162   10.2724 F   0  0  0  0  0  0  0  0  0  0  0  0
   -1.5593   -2.2668   11.3264 F   0  0  0  0  0  0  0  0  0  0  0  0
   -4.0320   -2.9778   12.1493 F   0  0  0  0  0  0  0  0  0  0  0  0
   -4.1954   -1.2054    8.0589 F   0  0  0  0  0  0  0  0  0  0  0  0
   -5.2248   -3.4955    9.0516 F   0  0  0  0  0  0  0  0  0  0  0  0
   -2.1126    4.1233    4.8611 F   0  0  0  0  0  0  0  0  0  0  0  0
   -3.0628    1.6498    5.4751 F   0  0  0  0  0  0  0  0  0  0  0  0
    0.7341   -4.6240    8.4905 F   0  0  0  0  0  0  0  0  0  0  0  0
    0.0491   -2.1464    9.3516 F   0  0  0  0  0  0  0  0  0  0  0  0
   -2.4813    2.9915   11.6312 F   0  0  0  0  0  0  0  0  0  0  0  0
   -0.8383    0.9286   12.2722 F   0  0  0  0  0  0  0  0  0  0  0  0
   -2.5202   -5.4544    8.4102 F   0  0  0  0  0  0  0  0  0  0  0  0
   -2.7477   -3.8464    6.2358 F   0  0  0  0  0  0  0  0  0  0  0  0
  1  2  1  0
  1  3  1  0
  2  7  1  0
  2 14  1  0
  2 15  1  0
  3  4  1  0
  3 16  1  0
  3 17  1  0
  4  5  1  0
  4 30  1  0
  4 31  1  0
  5  8  1  0
  5 18  1  0
  5 19  1  0
  6  7  1  0
  6  9  1  0
  6 32  1  0
  6 33  1  0
  7 22  1  0
  7 23  1  0
  8 10  1  0
  8 20  1  0
  8 21  1  0
  9 11  1  0
  9 36  1  0
  9 37  1  0
 10 12  1  0
 10 34  1  0
 10 35  1  0
 11 13  1  0
 11 28  1  0
 11 29  1  0
 12 13  1  0
 12 24  1  0
 12 25  1  0
 13 26  1  0
 13 27  1  0
M  CHG  1   1   1
M  RAD  1   1   2
M  END
$$$$
