
     RDKit          3D

 37 37  0  0  0  0  0  0  0  0999 V2000
   -0.1064   -1.8004   -4.0451 S   0  0  0  0  0  2  0  0  0  0  0  0
   -0.5452   -3.6788   -4.9308 Si  0  0  0  0  0  4  0  0  0  0  0  0
    0.0022   -0.2015   -5.4039 Si  0  0  0  0  0  4  0  0  0  0  0  0
   -1.2045   -0.4563   -7.2250 Si  0  0  0  0  0  4  0  0  0  0  0  0
    0.0661    0.1122   -8.9988 Si  0  0  0  0  0  4  0  0  0  0  0  0
    0.5977   -6.3958   -7.0620 Si  0  0  0  0  0  4  0  0  0  0  0  0
    0.9365   -4.2709   -6.4738 Si  0  0  0  0  0  4  0  0  0  0  0  0
   -0.9266   -0.3869  -10.9026 Si  0  0  0  0  0  4  0  0  0  0  0  0
    1.1956   -6.7927   -9.1534 Si  0  0  0  0  0  4  0  0  0  0  0  0
   -0.6239   -2.5052  -11.5048 Si  0  0  0  0  0  4  0  0  0  0  0  0
   -0.5845   -6.7573  -10.5371 Si  0  0  0  0  0  4  0  0  0  0  0  0
   -2.4793   -3.6483  -11.1262 Si  0  0  0  0  0  4  0  0  0  0  0  0
   -2.1379   -5.3756   -9.7552 Si  0  0  0  0  0  4  0  0  0  0  0  0
   -2.1094   -3.6599   -5.5145 F   0  0  0  0  0  0  0  0  0  0  0  0
   -0.4878   -4.8529   -3.6944 F   0  0  0  0  0  0  0  0  0  0  0  0
   -0.5246    1.2166   -4.6114 F   0  0  0  0  0  0  0  0  0  0  0  0
    1.6422    0.0794   -5.7847 F   0  0  0  0  0  0  0  0  0  0  0  0
    0.2321    1.8094   -8.9208 F   0  0  0  0  0  0  0  0  0  0  0  0
    1.6010   -0.5337   -8.8709 F   0  0  0  0  0  0  0  0  0  0  0  0
   -2.5726   -0.0518  -10.7995 F   0  0  0  0  0  0  0  0  0  0  0  0
   -0.2966    0.6404  -12.1107 F   0  0  0  0  0  0  0  0  0  0  0  0
    0.8926   -3.2346   -7.7740 F   0  0  0  0  0  0  0  0  0  0  0  0
    2.4830   -4.1468   -5.7728 F   0  0  0  0  0  0  0  0  0  0  0  0
   -3.6512   -2.6629  -10.4220 F   0  0  0  0  0  0  0  0  0  0  0  0
   -3.1442   -4.2676  -12.5605 F   0  0  0  0  0  0  0  0  0  0  0  0
   -3.6371   -6.1745   -9.5904 F   0  0  0  0  0  0  0  0  0  0  0  0
   -1.6850   -4.8806   -8.2220 F   0  0  0  0  0  0  0  0  0  0  0  0
   -1.2628   -8.3160  -10.6246 F   0  0  0  0  0  0  0  0  0  0  0  0
   -0.1502   -6.2653  -12.0701 F   0  0  0  0  0  0  0  0  0  0  0  0
   -2.5305    0.6193   -7.2398 F   0  0  0  0  0  0  0  0  0  0  0  0
   -1.8152   -1.9925   -7.4212 F   0  0  0  0  0  0  0  0  0  0  0  0
    1.5694   -7.3683   -6.0512 F   0  0  0  0  0  0  0  0  0  0  0  0
   -1.0010   -6.8480   -6.7506 F   0  0  0  0  0  0  0  0  0  0  0  0
   -0.3273   -2.5431  -13.1855 F   0  0  0  0  0  0  0  0  0  0  0  0
    0.7247   -3.1910  -10.7690 F   0  0  0  0  0  0  0  0  0  0  0  0
    1.8453   -8.3676   -9.2513 F   0  0  0  0  0  0  0  0  0  0  0  0
    2.3533   -5.7051   -9.7088 F   0  0  0  0  0  0  0  0  0  0  0  0
  1  2  1  0
  1  3  1  0
  2  7  1  0
  2 14  1  0
  2 15  1  0
  3  4  1  0
  3 16  1  0
  3 17  1  0
  4  5  1  0
  4 30  1  0
  4 31  1  0
  5  8  1  0
  5 18  1  0
  5 19  1  0
  6  7  1  0
  6  9  1  0
  6 32  1  0
  6 33  1  0
  7 22  1  0
  7 23  1  0
  8 10  1  0
  8 20  1  0
  8 21  1  0
  9 11  1  0
  9 36  1  0
  9 37  1  0
 10 12  1  0
 10 34  1  0
 10 35  1  0
 11 13  1  0
 11 28  1  0
 11 29  1  0
 12 13  1  0
 12 24  1  0
 12 25  1  0
 13 26  1  0
 13 27  1  0
M  CHG  1   1   1
M  RAD  1   1   2
M  END
$$$$

     RDKit          3D

 37 37  0  0  0  0  0  0  0  0999 V2000
   -0.1064   -1.8004   -4.0451 S   0  0  0  0  0  2  0  0  0  0  0  0
    0.8495   -0.2648   -5.2331 Si  0  0  0  0  0  4  0  0  0  0  0  0
    1.3456   -3.2397   -3.4396 Si  0  0  0  0  0  4  0  0  0  0  0  0
    1.4446   -4.9513   -4.8804 Si  0  0  0  0  0  4  0  0  0  0  0  0
   -0.5856   -5.6234   -5.4805 Si  0  0  0  0  0  4  0  0  0  0  0  0
    2.7029   -0.3824   -8.3936 Si  0  0  0  0  0  4  0  0  0  0  0  0
    0.7994   -0.8385   -7.4132 Si  0  0  0  0  0  4  0  0  0  0  0  0
   -0.5533   -6.8354   -7.3227 Si  0  0  0  0  0  4  0  0  0  0  0  0
    3.8615   -2.1270   -9.0363 Si  0  0  0  0  0  4  0  0  0  0  0  0
    1.3476   -7.9147   -7.6297 Si  0  0  0  0  0  4  0  0  0  0  0  0
    2.7012   -3.7437   -9.9422 Si  0  0  0  0  0  4  0  0  0  0  0  0
    2.2503   -7.3900   -9.6196 Si  0  0  0  0  0  4  0  0  0  0  0  0
    3.6849   -5.7097   -9.4299 Si  0  0  0  0  0  4  0  0  0  0  0  0
    0.0467    1.1845   -4.9747 F   0  0  0  0  0  0  0  0  0  0  0  0
    2.4414   -0.0649   -4.7088 F   0  0  0  0  0  0  0  0  0  0  0  0
    1.0473   -3.8633   -1.9190 F   0  0  0  0  0  0  0  0  0  0  0  0
    2.8711   -2.4754   -3.4988 F   0  0  0  0  0  0  0  0  0  0  0  0
   -1.2503   -6.5056   -4.2245 F   0  0  0  0  0  0  0  0  0  0  0  0
   -1.5431   -4.2439   -5.7729 F   0  0  0  0  0  0  0  0  0  0  0  0
   -0.8955   -5.8878   -8.6911 F   0  0  0  0  0  0  0  0  0  0  0  0
   -1.8065   -7.9850   -7.2229 F   0  0  0  0  0  0  0  0  0  0  0  0
   -0.4373    0.1028   -8.1184 F   0  0  0  0  0  0  0  0  0  0  0  0
    0.3288   -2.4267   -7.5019 F   0  0  0  0  0  0  0  0  0  0  0  0
    1.0439   -7.0392  -10.7510 F   0  0  0  0  0  0  0  0  0  0  0  0
    3.1075   -8.7457  -10.1817 F   0  0  0  0  0  0  0  0  0  0  0  0
    4.9433   -5.9505  -10.5574 F   0  0  0  0  0  0  0  0  0  0  0  0
    4.4036   -5.6416   -7.9154 F   0  0  0  0  0  0  0  0  0  0  0  0
    1.1004   -3.7882   -9.5145 F   0  0  0  0  0  0  0  0  0  0  0  0
    2.7788   -3.6150  -11.6403 F   0  0  0  0  0  0  0  0  0  0  0  0
    2.2337   -4.3875   -6.2662 F   0  0  0  0  0  0  0  0  0  0  0  0
    2.2709   -6.2415   -4.1975 F   0  0  0  0  0  0  0  0  0  0  0  0
    2.4563    0.6374   -9.7395 F   0  0  0  0  0  0  0  0  0  0  0  0
    3.6667    0.5247   -7.3134 F   0  0  0  0  0  0  0  0  0  0  0  0
    1.1123   -9.6017   -7.6172 F   0  0  0  0  0  0  0  0  0  0  0  0
    2.4968   -7.5730   -6.4567 F   0  0  0  0  0  0  0  0  0  0  0  0
    5.0241   -1.5908  -10.1685 F   0  0  0  0  0  0  0  0  0  0  0  0
    4.7569   -2.7188   -7.7144 F   0  0  0  0  0  0  0  0  0  0  0  0
  1  2  1  0
  1  3  1  0
  2  7  1  0
  2 14  1  0
  2 15  1  0
  3  4  1  0
  3 16  1  0
  3 17  1  0
  4  5  1  0
  4 30  1  0
  4 31  1  0
  5  8  1  0
  5 18  1  0
  5 19  1  0
  6  7  1  0
  6  9  1  0
  6 32  1  0
  6 33  1  0
  7 22  1  0
  7 23  1  0
  8 10  1  0
  8 20  1  0
  8 21  1  0
  9 11  1  0
  9 36  1  0
  9 37  1  0
 10 12  1  0
 10 34  1  0
 10 35  1  0
 11 13  1  0
 11 28  1  0
 11 29  1  0
 12 13  1  0
 12 24  1  0
 12 25  1  0
 13 26  1  0
 13 27  1  0
M  CHG  1   1   1
M  RAD  1   1   2
M  END
$$$$
