
     RDKit          3D

 37 37  0  0  0  0  0  0  0  0999 V2000
    0.0001    0.0000    3.1933 S   0  0  0  0  0  2  0  0  0  0  0  0
   -1.3377    0.1594    4.8850 Si  0  0  0  0  0  4  0  0  0  0  0  0
    1.9775   -0.3982    3.9883 Si  0  0  0  0  0  4  0  0  0  0  0  0
    3.5554    0.2387    2.5788 Si  0  0  0  0  0  4  0  0  0  0  0  0
    5.3576   -1.0383    2.6566 Si  0  0  0  0  0  4  0  0  0  0  0  0
    0.0909    0.6742    8.2433 Si  0  0  0  0  0  4  0  0  0  0  0  0
   -0.5509    1.6758    6.3516 Si  0  0  0  0  0  4  0  0  0  0  0  0
    6.7048   -0.4593    4.3683 Si  0  0  0  0  0  4  0  0  0  0  0  0
    1.9584    1.6142    9.0546 Si  0  0  0  0  0  4  0  0  0  0  0  0
    5.4883   -0.1194    6.1772 Si  0  0  0  0  0  4  0  0  0  0  0  0
    3.4356    0.0516    9.6691 Si  0  0  0  0  0  4  0  0  0  0  0  0
    6.7198   -0.2064    8.0483 Si  0  0  0  0  0  4  0  0  0  0  0  0
    5.5191    0.8493    9.6400 Si  0  0  0  0  0  4  0  0  0  0  0  0
   -2.8486    0.6188    4.2997 F   0  0  0  0  0  0  0  0  0  0  0  0
   -1.4444   -1.3608    5.6211 F   0  0  0  0  0  0  0  0  0  0  0  0
    2.0861   -2.0329    4.3423 F   0  0  0  0  0  0  0  0  0  0  0  0
    2.0541    0.4645    5.4574 F   0  0  0  0  0  0  0  0  0  0  0  0
    5.0077   -2.6719    2.6873 F   0  0  0  0  0  0  0  0  0  0  0  0
    6.2596   -0.7501    1.2362 F   0  0  0  0  0  0  0  0  0  0  0  0
    7.8509   -1.6712    4.5680 F   0  0  0  0  0  0  0  0  0  0  0  0
    7.4292    1.0141    3.9255 F   0  0  0  0  0  0  0  0  0  0  0  0
   -1.8376    2.7402    6.7018 F   0  0  0  0  0  0  0  0  0  0  0  0
    0.6722    2.5962    5.6790 F   0  0  0  0  0  0  0  0  0  0  0  0
    6.9591   -1.7960    8.5391 F   0  0  0  0  0  0  0  0  0  0  0  0
    8.1711    0.6297    7.8653 F   0  0  0  0  0  0  0  0  0  0  0  0
    6.2674    0.7287   11.1253 F   0  0  0  0  0  0  0  0  0  0  0  0
    5.4310    2.4795    9.1538 F   0  0  0  0  0  0  0  0  0  0  0  0
    3.2883   -1.3268    8.7021 F   0  0  0  0  0  0  0  0  0  0  0  0
    3.1143   -0.4348   11.2716 F   0  0  0  0  0  0  0  0  0  0  0  0
    4.0291    1.8463    2.8368 F   0  0  0  0  0  0  0  0  0  0  0  0
    2.9084    0.1545    1.0015 F   0  0  0  0  0  0  0  0  0  0  0  0
    0.3745   -0.9523    7.8760 F   0  0  0  0  0  0  0  0  0  0  0  0
   -1.1720    0.8121    9.3714 F   0  0  0  0  0  0  0  0  0  0  0  0
    4.3213   -1.3171    6.2855 F   0  0  0  0  0  0  0  0  0  0  0  0
    4.8224    1.4255    6.0995 F   0  0  0  0  0  0  0  0  0  0  0  0
    2.6115    2.7135    7.9866 F   0  0  0  0  0  0  0  0  0  0  0  0
    1.5428    2.4743   10.4700 F   0  0  0  0  0  0  0  0  0  0  0  0
  1  2  1  0
  1  3  1  0
  2  7  1  0
  2 14  1  0
  2 15  1  0
  3  4  1  0
  3 16  1  0
  3 17  1  0
  4  5  1  0
  4 30  1  0
  4 31  1  0
  5  8  1  0
  5 18  1  0
  5 19  1  0
  6  7  1  0
  6  9  1  0
  6 32  1  0
  6 33  1  0
  7 22  1  0
  7 23  1  0
  8 10  1  0
  8 20  1  0
  8 21  1  0
  9 11  1  0
  9 36  1  0
  9 37  1  0
 10 12  1  0
 10 34  1  0
 10 35  1  0
 11 13  1  0
 11 28  1  0
 11 29  1  0
 12 13  1  0
 12 24  1  0
 12 25  1  0
 13 26  1  0
 13 27  1  0
M  CHG  1   1   1
M  RAD  1   1   2
M  END
$$$$

     RDKit          3D

 37 37  0  0  0  0  0  0  0  0999 V2000
    0.0001    0.0000    3.1933 S   0  0  0  0  0  2  0  0  0  0  0  0
   -1.6772    1.2046    3.6583 Si  0  0  0  0  0  4  0  0  0  0  0  0
    0.3446   -1.4264    4.7945 Si  0  0  0  0  0  4  0  0  0  0  0  0
    1.1396   -0.1872    6.4928 Si  0  0  0  0  0  4  0  0  0  0  0  0
    1.1111   -1.2623    8.4062 Si  0  0  0  0  0  4  0  0  0  0  0  0
    0.9388    3.7894    3.9786 Si  0  0  0  0  0  4  0  0  0  0  0  0
   -1.1847    3.2500    4.2690 Si  0  0  0  0  0  4  0  0  0  0  0  0
    2.6212   -0.2751    9.7608 Si  0  0  0  0  0  4  0  0  0  0  0  0
    1.4924    5.5983    5.1673 Si  0  0  0  0  0  4  0  0  0  0  0  0
    2.1462    1.9166    9.9656 Si  0  0  0  0  0  4  0  0  0  0  0  0
    1.1850    5.2855    7.3439 Si  0  0  0  0  0  4  0  0  0  0  0  0
    3.6954    3.0901    8.9435 Si  0  0  0  0  0  4  0  0  0  0  0  0
    3.0862    5.1603    8.4567 Si  0  0  0  0  0  4  0  0  0  0  0  0
   -2.5524    0.4494    4.9115 F   0  0  0  0  0  0  0  0  0  0  0  0
   -2.7208    1.1958    2.3076 F   0  0  0  0  0  0  0  0  0  0  0  0
   -1.1015   -2.1552    5.1841 F   0  0  0  0  0  0  0  0  0  0  0  0
    1.5175   -2.5112    4.2848 F   0  0  0  0  0  0  0  0  0  0  0  0
   -0.3979   -1.0499    9.1380 F   0  0  0  0  0  0  0  0  0  0  0  0
    1.5241   -2.8714    8.2714 F   0  0  0  0  0  0  0  0  0  0  0  0
    2.5461   -1.0575   11.2330 F   0  0  0  0  0  0  0  0  0  0  0  0
    4.1741   -0.4709    9.1306 F   0  0  0  0  0  0  0  0  0  0  0  0
   -2.1240    4.3352    3.3450 F   0  0  0  0  0  0  0  0  0  0  0  0
   -1.6154    3.5254    5.8852 F   0  0  0  0  0  0  0  0  0  0  0  0
    5.0479    3.1985    9.9819 F   0  0  0  0  0  0  0  0  0  0  0  0
    4.2576    2.3581    7.5255 F   0  0  0  0  0  0  0  0  0  0  0  0
    4.3090    5.8429    7.4910 F   0  0  0  0  0  0  0  0  0  0  0  0
    3.0441    6.0869    9.8798 F   0  0  0  0  0  0  0  0  0  0  0  0
    0.3534    6.6617    7.9272 F   0  0  0  0  0  0  0  0  0  0  0  0
    0.1680    3.9803    7.6500 F   0  0  0  0  0  0  0  0  0  0  0  0
    0.1592    1.1787    6.5777 F   0  0  0  0  0  0  0  0  0  0  0  0
    2.7339    0.2067    6.0945 F   0  0  0  0  0  0  0  0  0  0  0  0
    1.1416    4.2023    2.3403 F   0  0  0  0  0  0  0  0  0  0  0  0
    1.9958    2.5493    4.3161 F   0  0  0  0  0  0  0  0  0  0  0  0
    2.2255    2.2623   11.6353 F   0  0  0  0  0  0  0  0  0  0  0  0
    0.5940    2.2428    9.4667 F   0  0  0  0  0  0  0  0  0  0  0  0
    0.5375    6.8829    4.5800 F   0  0  0  0  0  0  0  0  0  0  0  0
    3.0942    5.9998    4.8059 F   0  0  0  0  0  0  0  0  0  0  0  0
  1  2  1  0
  1  3  1  0
  2  7  1  0
  2 14  1  0
  2 15  1  0
  3  4  1  0
  3 16  1  0
  3 17  1  0
  4  5  1  0
  4 30  1  0
  4 31  1  0
  5  8  1  0
  5 18  1  0
  5 19  1  0
  6  7  1  0
  6  9  1  0
  6 32  1  0
  6 33  1  0
  7 22  1  0
  7 23  1  0
  8 10  1  0
  8 20  1  0
  8 21  1  0
  9 11  1  0
  9 36  1  0
  9 37  1  0
 10 12  1  0
 10 34  1  0
 10 35  1  0
 11 13  1  0
 11 28  1  0
 11 29  1  0
 12 13  1  0
 12 24  1  0
 12 25  1  0
 13 26  1  0
 13 27  1  0
M  CHG  1   1   1
M  RAD  1   1   2
M  END
$$$$

     RDKit          3D

 37 37  0  0  0  0  0  0  0  0999 V2000
    0.0001    0.0000    3.1933 S   0  0  0  0  0  2  0  0  0  0  0  0
    1.7190   -1.1444    3.6582 Si  0  0  0  0  0  4  0  0  0  0  0  0
   -0.3946    1.4133    4.7946 Si  0  0  0  0  0  4  0  0  0  0  0  0
   -1.1451    0.1467    6.4929 Si  0  0  0  0  0  4  0  0  0  0  0  0
   -1.1545    1.2221    8.4062 Si  0  0  0  0  0  4  0  0  0  0  0  0
   -0.8037   -3.8202    3.9787 Si  0  0  0  0  0  4  0  0  0  0  0  0
    1.2993   -3.2060    4.2689 Si  0  0  0  0  0  4  0  0  0  0  0  0
   -2.6286    0.1821    9.7610 Si  0  0  0  0  0  4  0  0  0  0  0  0
   -1.2928   -5.6477    5.1675 Si  0  0  0  0  0  4  0  0  0  0  0  0
   -2.0762   -1.9914    9.9658 Si  0  0  0  0  0  4  0  0  0  0  0  0
   -0.9965   -5.3241    7.3440 Si  0  0  0  0  0  4  0  0  0  0  0  0
   -3.5829   -3.2191    8.9439 Si  0  0  0  0  0  4  0  0  0  0  0  0
   -2.9008   -5.2664    8.4569 Si  0  0  0  0  0  4  0  0  0  0  0  0
    2.5670   -0.3587    4.9113 F   0  0  0  0  0  0  0  0  0  0  0  0
    2.7615   -1.0987    2.3074 F   0  0  0  0  0  0  0  0  0  0  0  0
    1.0248    2.1929    5.1840 F   0  0  0  0  0  0  0  0  0  0  0  0
   -1.6053    2.4558    4.2849 F   0  0  0  0  0  0  0  0  0  0  0  0
    0.3612    1.0634    9.1380 F   0  0  0  0  0  0  0  0  0  0  0  0
   -1.6243    2.8156    8.2716 F   0  0  0  0  0  0  0  0  0  0  0  0
   -2.5811    0.9666   11.2332 F   0  0  0  0  0  0  0  0  0  0  0  0
   -4.1875    0.3227    9.1309 F   0  0  0  0  0  0  0  0  0  0  0  0
    2.2764   -4.2572    3.3448 F   0  0  0  0  0  0  0  0  0  0  0  0
    1.7396   -3.4659    5.8850 F   0  0  0  0  0  0  0  0  0  0  0  0
   -4.9307   -3.3753    9.9823 F   0  0  0  0  0  0  0  0  0  0  0  0
   -4.1708   -2.5074    7.5259 F   0  0  0  0  0  0  0  0  0  0  0  0
   -4.0988   -5.9919    7.4913 F   0  0  0  0  0  0  0  0  0  0  0  0
   -2.8258   -6.1909    9.8800 F   0  0  0  0  0  0  0  0  0  0  0  0
   -0.1166   -6.6700    7.9272 F   0  0  0  0  0  0  0  0  0  0  0  0
   -0.0264   -3.9837    7.6500 F   0  0  0  0  0  0  0  0  0  0  0  0
   -0.1169   -1.1836    6.5777 F   0  0  0  0  0  0  0  0  0  0  0  0
   -2.7244   -0.3034    6.0947 F   0  0  0  0  0  0  0  0  0  0  0  0
   -0.9919   -4.2401    2.3404 F   0  0  0  0  0  0  0  0  0  0  0  0
   -1.9040   -2.6184    4.3163 F   0  0  0  0  0  0  0  0  0  0  0  0
   -2.1431   -2.3397   11.6355 F   0  0  0  0  0  0  0  0  0  0  0  0
   -0.5135   -2.2624    9.4668 F   0  0  0  0  0  0  0  0  0  0  0  0
   -0.2931   -6.8976    4.5800 F   0  0  0  0  0  0  0  0  0  0  0  0
   -2.8794   -6.1056    4.8062 F   0  0  0  0  0  0  0  0  0  0  0  0
  1  2  1  0
  1  3  1  0
  2  7  1  0
  2 14  1  0
  2 15  1  0
  3  4  1  0
  3 16  1  0
  3 17  1  0
  4  5  1  0
  4 30  1  0
  4 31  1  0
  5  8  1  0
  5 18  1  0
  5 19  1  0
  6  7  1  0
  6  9  1  0
  6 32  1  0
  6 33  1  0
  7 22  1  0
  7 23  1  0
  8 10  1  0
  8 20  1  0
  8 21  1  0
  9 11  1  0
  9 36  1  0
  9 37  1  0
 10 12  1  0
 10 34  1  0
 10 35  1  0
 11 13  1  0
 11 28  1  0
 11 29  1  0
 12 13  1  0
 12 24  1  0
 12 25  1  0
 13 26  1  0
 13 27  1  0
M  CHG  1   1   1
M  RAD  1   1   2
M  END
$$$$

     RDKit          3D

 37 37  0  0  0  0  0  0  0  0999 V2000
    0.0001    0.0000    3.1933 S   0  0  0  0  0  2  0  0  0  0  0  0
    1.6046    0.0536    4.5793 Si  0  0  0  0  0  4  0  0  0  0  0  0
   -1.7892   -0.6747    4.2486 Si  0  0  0  0  0  4  0  0  0  0  0  0
   -2.2183    0.9991    5.5868 Si  0  0  0  0  0  4  0  0  0  0  0  0
   -3.7033    0.6969    7.1643 Si  0  0  0  0  0  4  0  0  0  0  0  0
    1.5927    3.7782    4.4121 Si  0  0  0  0  0  4  0  0  0  0  0  0
    2.7096    1.9219    4.6980 Si  0  0  0  0  0  4  0  0  0  0  0  0
   -3.6494    2.6662    8.2996 Si  0  0  0  0  0  4  0  0  0  0  0  0
    2.4814    5.4228    5.6355 Si  0  0  0  0  0  4  0  0  0  0  0  0
   -4.1241    4.3316    6.9317 Si  0  0  0  0  0  4  0  0  0  0  0  0
    0.9904    6.6181    6.7213 Si  0  0  0  0  0  4  0  0  0  0  0  0
   -2.5361    5.7517    6.5370 Si  0  0  0  0  0  4  0  0  0  0  0  0
   -0.6488    5.4720    7.6460 Si  0  0  0  0  0  4  0  0  0  0  0  0
    2.6904   -1.1787    4.0909 F   0  0  0  0  0  0  0  0  0  0  0  0
    1.0966   -0.4509    6.1311 F   0  0  0  0  0  0  0  0  0  0  0  0
   -1.3506   -2.0324    5.1142 F   0  0  0  0  0  0  0  0  0  0  0  0
   -3.0210   -0.9772    3.1493 F   0  0  0  0  0  0  0  0  0  0  0  0
   -3.3856   -0.5780    8.1791 F   0  0  0  0  0  0  0  0  0  0  0  0
   -5.2519    0.6054    6.4848 F   0  0  0  0  0  0  0  0  0  0  0  0
   -2.1418    2.7865    9.0041 F   0  0  0  0  0  0  0  0  0  0  0  0
   -4.7847    2.4988    9.5457 F   0  0  0  0  0  0  0  0  0  0  0  0
    3.9786    1.8954    3.5530 F   0  0  0  0  0  0  0  0  0  0  0  0
    3.4928    2.0007    6.2167 F   0  0  0  0  0  0  0  0  0  0  0  0
   -3.0800    7.3354    6.8949 F   0  0  0  0  0  0  0  0  0  0  0  0
   -2.1466    5.8219    4.8766 F   0  0  0  0  0  0  0  0  0  0  0  0
   -0.1797    3.8804    7.7996 F   0  0  0  0  0  0  0  0  0  0  0  0
   -0.8869    6.0693    9.2094 F   0  0  0  0  0  0  0  0  0  0  0  0
    0.2849    7.7683    5.6729 F   0  0  0  0  0  0  0  0  0  0  0  0
    1.7921    7.5104    7.9082 F   0  0  0  0  0  0  0  0  0  0  0  0
   -2.6592    2.3344    4.6598 F   0  0  0  0  0  0  0  0  0  0  0  0
   -0.7446    1.2907    6.4030 F   0  0  0  0  0  0  0  0  0  0  0  0
    1.6911    4.2171    2.7642 F   0  0  0  0  0  0  0  0  0  0  0  0
   -0.0079    3.7254    4.8158 F   0  0  0  0  0  0  0  0  0  0  0  0
   -5.5010    5.1196    7.5741 F   0  0  0  0  0  0  0  0  0  0  0  0
   -4.6759    3.6802    5.4492 F   0  0  0  0  0  0  0  0  0  0  0  0
    3.5969    4.7410    6.7314 F   0  0  0  0  0  0  0  0  0  0  0  0
    3.3747    6.4446    4.6308 F   0  0  0  0  0  0  0  0  0  0  0  0
  1  2  1  0
  1  3  1  0
  2  7  1  0
  2 14  1  0
  2 15  1  0
  3  4  1  0
  3 16  1  0
  3 17  1  0
  4  5  1  0
  4 30  1  0
  4 31  1  0
  5  8  1  0
  5 18  1  0
  5 19  1  0
  6  7  1  0
  6  9  1  0
  6 32  1  0
  6 33  1  0
  7 22  1  0
  7 23  1  0
  8 10  1  0
  8 20  1  0
  8 21  1  0
  9 11  1  0
  9 36  1  0
  9 37  1  0
 10 12  1  0
 10 34  1  0
 10 35  1  0
 11 13  1  0
 11 28  1  0
 11 29  1  0
 12 13  1  0
 12 24  1  0
 12 25  1  0
 13 26  1  0
 13 27  1  0
M  CHG  1   1   1
M  RAD  1   1   2
M  END
$$$$

     RDKit          3D

 37 37  0  0  0  0  0  0  0  0999 V2000
    0.0001    0.0000    3.1933 S   0  0  0  0  0  2  0  0  0  0  0  0
   -1.1042   -1.1651    4.5794 Si  0  0  0  0  0  4  0  0  0  0  0  0
    0.7998    1.7371    4.2485 Si  0  0  0  0  0  4  0  0  0  0  0  0
    2.2810    0.8471    5.5867 Si  0  0  0  0  0  4  0  0  0  0  0  0
    3.1259    2.1053    7.1640 Si  0  0  0  0  0  4  0  0  0  0  0  0
    1.5204   -3.8079    4.4121 Si  0  0  0  0  0  4  0  0  0  0  0  0
   -0.5784   -3.2711    4.6981 Si  0  0  0  0  0  4  0  0  0  0  0  0
    4.4708    0.6658    8.2993 Si  0  0  0  0  0  4  0  0  0  0  0  0
    2.0432   -5.6026    5.6355 Si  0  0  0  0  0  4  0  0  0  0  0  0
    5.9784   -0.1862    6.9313 Si  0  0  0  0  0  4  0  0  0  0  0  0
    3.9440   -5.4061    6.7212 Si  0  0  0  0  0  4  0  0  0  0  0  0
    5.8456   -2.3124    6.5367 Si  0  0  0  0  0  4  0  0  0  0  0  0
    4.3058   -3.4389    7.6458 Si  0  0  0  0  0  4  0  0  0  0  0  0
   -2.7427   -1.0507    4.0911 F   0  0  0  0  0  0  0  0  0  0  0  0
   -1.0969   -0.4491    6.1312 F   0  0  0  0  0  0  0  0  0  0  0  0
   -0.4660    2.3954    5.1142 F   0  0  0  0  0  0  0  0  0  0  0  0
    1.4641    2.8176    3.1491 F   0  0  0  0  0  0  0  0  0  0  0  0
    2.0043    2.7897    8.1789 F   0  0  0  0  0  0  0  0  0  0  0  0
    4.1637    3.2582    6.4844 F   0  0  0  0  0  0  0  0  0  0  0  0
    3.4823   -0.4787    9.0039 F   0  0  0  0  0  0  0  0  0  0  0  0
    5.1614    1.5825    9.5453 F   0  0  0  0  0  0  0  0  0  0  0  0
   -1.5003   -4.1436    3.5532 F   0  0  0  0  0  0  0  0  0  0  0  0
   -1.0804   -3.8773    6.2169 F   0  0  0  0  0  0  0  0  0  0  0  0
    7.3451   -3.0576    6.8944 F   0  0  0  0  0  0  0  0  0  0  0  0
    5.6175   -2.6360    4.8762 F   0  0  0  0  0  0  0  0  0  0  0  0
    2.8540   -2.6356    7.7995 F   0  0  0  0  0  0  0  0  0  0  0  0
    4.8950   -3.6968    9.2092 F   0  0  0  0  0  0  0  0  0  0  0  0
    5.2540   -5.7293    5.6727 F   0  0  0  0  0  0  0  0  0  0  0  0
    4.0003   -6.6043    7.9081 F   0  0  0  0  0  0  0  0  0  0  0  0
    3.5327    0.2064    4.6595 F   0  0  0  0  0  0  0  0  0  0  0  0
    1.4370   -0.3955    6.4029 F   0  0  0  0  0  0  0  0  0  0  0  0
    1.7585   -4.1894    2.7642 F   0  0  0  0  0  0  0  0  0  0  0  0
    2.6226   -2.6460    4.8157 F   0  0  0  0  0  0  0  0  0  0  0  0
    7.5119    0.2201    7.5736 F   0  0  0  0  0  0  0  0  0  0  0  0
    5.9135    0.6651    5.4488 F   0  0  0  0  0  0  0  0  0  0  0  0
    0.7704   -5.9008    6.7315 F   0  0  0  0  0  0  0  0  0  0  0  0
    2.1249   -6.9574    4.6308 F   0  0  0  0  0  0  0  0  0  0  0  0
  1  2  1  0
  1  3  1  0
  2  7  1  0
  2 14  1  0
  2 15  1  0
  3  4  1  0
  3 16  1  0
  3 17  1  0
  4  5  1  0
  4 30  1  0
  4 31  1  0
  5  8  1  0
  5 18  1  0
  5 19  1  0
  6  7  1  0
  6  9  1  0
  6 32  1  0
  6 33  1  0
  7 22  1  0
  7 23  1  0
  8 10  1  0
  8 20  1  0
  8 21  1  0
  9 11  1  0
  9 36  1  0
  9 37  1  0
 10 12  1  0
 10 34  1  0
 10 35  1  0
 11 13  1  0
 11 28  1  0
 11 29  1  0
 12 13  1  0
 12 24  1  0
 12 25  1  0
 13 26  1  0
 13 27  1  0
M  CHG  1   1   1
M  RAD  1   1   2
M  END
$$$$

     RDKit          3D

 37 37  0  0  0  0  0  0  0  0999 V2000
    0.0001    0.0000    3.1933 S   0  0  0  0  0  2  0  0  0  0  0  0
   -2.0750   -0.1006    3.6146 Si  0  0  0  0  0  4  0  0  0  0  0  0
    0.8941    1.8276    3.8176 Si  0  0  0  0  0  4  0  0  0  0  0  0
    0.2836    2.4471    5.8388 Si  0  0  0  0  0  4  0  0  0  0  0  0
    1.6012    1.5900    7.4301 Si  0  0  0  0  0  4  0  0  0  0  0  0
   -2.0726   -3.5563    4.8403 Si  0  0  0  0  0  4  0  0  0  0  0  0
   -2.4917   -1.4244    5.3752 Si  0  0  0  0  0  4  0  0  0  0  0  0
    3.7203    1.6267    6.8985 Si  0  0  0  0  0  4  0  0  0  0  0  0
    0.0842   -3.9010    4.4749 Si  0  0  0  0  0  4  0  0  0  0  0  0
    4.5852   -0.3038    6.3181 Si  0  0  0  0  0  4  0  0  0  0  0  0
    1.1994   -4.2384    6.4010 Si  0  0  0  0  0  4  0  0  0  0  0  0
    3.9381   -2.0260    7.4966 Si  0  0  0  0  0  4  0  0  0  0  0  0
    3.3514   -3.6988    6.1302 Si  0  0  0  0  0  4  0  0  0  0  0  0
   -2.7828    1.4090    3.8164 F   0  0  0  0  0  0  0  0  0  0  0  0
   -2.8462   -0.8250    2.2754 F   0  0  0  0  0  0  0  0  0  0  0  0
    2.5619    1.6969    3.6617 F   0  0  0  0  0  0  0  0  0  0  0  0
    0.3984    3.0400    2.7227 F   0  0  0  0  0  0  0  0  0  0  0  0
    1.0036    0.0757    7.8045 F   0  0  0  0  0  0  0  0  0  0  0  0
    1.3685    2.5673    8.8136 F   0  0  0  0  0  0  0  0  0  0  0  0
    4.6537    2.2692    8.1762 F   0  0  0  0  0  0  0  0  0  0  0  0
    3.9362    2.7122    5.5973 F   0  0  0  0  0  0  0  0  0  0  0  0
   -1.5559   -1.0263    6.6936 F   0  0  0  0  0  0  0  0  0  0  0  0
   -4.1107   -1.2877    5.8090 F   0  0  0  0  0  0  0  0  0  0  0  0
    2.6594   -1.7221    8.5312 F   0  0  0  0  0  0  0  0  0  0  0  0
    5.2146   -2.6037    8.4735 F   0  0  0  0  0  0  0  0  0  0  0  0
    4.2875   -5.0686    6.3878 F   0  0  0  0  0  0  0  0  0  0  0  0
    3.6013   -3.2340    4.5093 F   0  0  0  0  0  0  0  0  0  0  0  0
    1.0529   -5.9042    6.7424 F   0  0  0  0  0  0  0  0  0  0  0  0
    0.4929   -3.4062    7.6634 F   0  0  0  0  0  0  0  0  0  0  0  0
   -1.3072    1.9675    6.1827 F   0  0  0  0  0  0  0  0  0  0  0  0
    0.3309    4.1258    5.9632 F   0  0  0  0  0  0  0  0  0  0  0  0
   -2.5404   -4.5108    6.1720 F   0  0  0  0  0  0  0  0  0  0  0  0
   -3.0151   -3.9526    3.5134 F   0  0  0  0  0  0  0  0  0  0  0  0
    6.2852   -0.1653    6.4251 F   0  0  0  0  0  0  0  0  0  0  0  0
    4.2634   -0.5628    4.6615 F   0  0  0  0  0  0  0  0  0  0  0  0
    0.8284   -2.6339    3.6873 F   0  0  0  0  0  0  0  0  0  0  0  0
    0.2279   -5.2722    3.4775 F   0  0  0  0  0  0  0  0  0  0  0  0
  1  2  1  0
  1  3  1  0
  2  7  1  0
  2 14  1  0
  2 15  1  0
  3  4  1  0
  3 16  1  0
  3 17  1  0
  4  5  1  0
  4 30  1  0
  4 31  1  0
  5  8  1  0
  5 18  1  0
  5 19  1  0
  6  7  1  0
  6  9  1  0
  6 32  1  0
  6 33  1  0
  7 22  1  0
  7 23  1  0
  8 10  1  0
  8 20  1  0
  8 21  1  0
  9 11  1  0
  9 36  1  0
  9 37  1  0
 10 12  1  0
 10 34  1  0
 10 35  1  0
 11 13  1  0
 11 28  1  0
 11 29  1  0
 12 13  1  0
 12 24  1  0
 12 25  1  0
 13 26  1  0
 13 27  1  0
M  CHG  1   1   1
M  RAD  1   1   2
M  END
$$$$

     RDKit          3D

 37 37  0  0  0  0  0  0  0  0999 V2000
    0.0001    0.0000    3.1933 S   0  0  0  0  0  2  0  0  0  0  0  0
   -1.9724    0.8901    3.2348 Si  0  0  0  0  0  4  0  0  0  0  0  0
   -0.0236   -1.9610    4.0188 Si  0  0  0  0  0  4  0  0  0  0  0  0
    0.8318   -1.9873    6.0998 Si  0  0  0  0  0  4  0  0  0  0  0  0
   -0.4611   -3.0889    7.5017 Si  0  0  0  0  0  4  0  0  0  0  0  0
   -4.3974    1.9132    5.8191 Si  0  0  0  0  0  4  0  0  0  0  0  0
   -3.0279    0.2964    5.1040 Si  0  0  0  0  0  4  0  0  0  0  0  0
   -1.0535   -1.9364    9.2833 Si  0  0  0  0  0  4  0  0  0  0  0  0
   -3.2334    3.6901    6.5321 Si  0  0  0  0  0  4  0  0  0  0  0  0
    0.5003   -0.5442   10.0154 Si  0  0  0  0  0  4  0  0  0  0  0  0
   -2.6936    3.4880    8.6866 Si  0  0  0  0  0  4  0  0  0  0  0  0
   -0.3539    1.4358   10.5890 Si  0  0  0  0  0  4  0  0  0  0  0  0
   -0.5468    2.8315    8.9057 Si  0  0  0  0  0  4  0  0  0  0  0  0
   -1.7606    2.5645    3.2676 F   0  0  0  0  0  0  0  0  0  0  0  0
   -2.8456    0.4980    1.8689 F   0  0  0  0  0  0  0  0  0  0  0  0
   -1.5773   -2.6355    4.0095 F   0  0  0  0  0  0  0  0  0  0  0  0
    0.9333   -2.9599    3.0309 F   0  0  0  0  0  0  0  0  0  0  0  0
   -1.8939   -3.4932    6.6605 F   0  0  0  0  0  0  0  0  0  0  0  0
    0.2383   -4.5861    7.9278 F   0  0  0  0  0  0  0  0  0  0  0  0
   -1.4907   -3.0664   10.4903 F   0  0  0  0  0  0  0  0  0  0  0  0
   -2.4754   -1.0288    9.0126 F   0  0  0  0  0  0  0  0  0  0  0  0
   -3.9051   -1.1088    4.9171 F   0  0  0  0  0  0  0  0  0  0  0  0
   -1.8572    0.0797    6.2942 F   0  0  0  0  0  0  0  0  0  0  0  0
   -1.8599    1.1742   11.3004 F   0  0  0  0  0  0  0  0  0  0  0  0
    0.6577    2.1125   11.7569 F   0  0  0  0  0  0  0  0  0  0  0  0
    0.3462    4.2603    9.1912 F   0  0  0  0  0  0  0  0  0  0  0  0
   -0.0335    2.2279    7.4464 F   0  0  0  0  0  0  0  0  0  0  0  0
   -3.7175    2.3898    9.4776 F   0  0  0  0  0  0  0  0  0  0  0  0
   -2.9276    4.9930    9.4219 F   0  0  0  0  0  0  0  0  0  0  0  0
    2.3554   -2.7563    6.0684 F   0  0  0  0  0  0  0  0  0  0  0  0
    1.0949   -0.3986    6.5361 F   0  0  0  0  0  0  0  0  0  0  0  0
   -5.5190    2.3216    4.6584 F   0  0  0  0  0  0  0  0  0  0  0  0
   -5.2311    1.3007    7.1609 F   0  0  0  0  0  0  0  0  0  0  0  0
    1.1280   -1.2015   11.4662 F   0  0  0  0  0  0  0  0  0  0  0  0
    1.8011   -0.3964    8.9865 F   0  0  0  0  0  0  0  0  0  0  0  0
   -1.8671    3.9354    5.5687 F   0  0  0  0  0  0  0  0  0  0  0  0
   -4.2396    5.0444    6.3294 F   0  0  0  0  0  0  0  0  0  0  0  0
  1  2  1  0
  1  3  1  0
  2  7  1  0
  2 14  1  0
  2 15  1  0
  3  4  1  0
  3 16  1  0
  3 17  1  0
  4  5  1  0
  4 30  1  0
  4 31  1  0
  5  8  1  0
  5 18  1  0
  5 19  1  0
  6  7  1  0
  6  9  1  0
  6 32  1  0
  6 33  1  0
  7 22  1  0
  7 23  1  0
  8 10  1  0
  8 20  1  0
  8 21  1  0
  9 11  1  0
  9 36  1  0
  9 37  1  0
 10 12  1  0
 10 34  1  0
 10 35  1  0
 11 13  1  0
 11 28  1  0
 11 29  1  0
 12 13  1  0
 12 24  1  0
 12 25  1  0
 13 26  1  0
 13 27  1  0
M  CHG  1   1   1
M  RAD  1   1   2
M  END
$$$$

     RDKit          3D

 37 37  0  0  0  0  0  0  0  0999 V2000
    0.0001    0.0000    3.1933 S   0  0  0  0  0  2  0  0  0  0  0  0
    1.2124    1.0523    4.5793 Si  0  0  0  0  0  4  0  0  0  0  0  0
   -0.9645   -1.6511    4.2485 Si  0  0  0  0  0  4  0  0  0  0  0  0
   -2.3521   -0.6215    5.5868 Si  0  0  0  0  0  4  0  0  0  0  0  0
   -3.3151   -1.7917    7.1643 Si  0  0  0  0  0  4  0  0  0  0  0  0
   -1.1430    3.9376    4.4122 Si  0  0  0  0  0  4  0  0  0  0  0  0
    0.8937    3.1994    4.6981 Si  0  0  0  0  0  4  0  0  0  0  0  0
   -4.5138   -0.2284    8.2996 Si  0  0  0  0  0  4  0  0  0  0  0  0
   -1.4888    5.7746    5.6357 Si  0  0  0  0  0  4  0  0  0  0  0  0
   -5.9316    0.7661    6.9318 Si  0  0  0  0  0  4  0  0  0  0  0  0
   -3.3997    5.7637    6.7215 Si  0  0  0  0  0  4  0  0  0  0  0  0
   -5.5928    2.8693    6.5372 Si  0  0  0  0  0  4  0  0  0  0  0  0
   -3.9508    3.8409    7.6461 Si  0  0  0  0  0  4  0  0  0  0  0  0
    2.8320    0.7792    4.0909 F   0  0  0  0  0  0  0  0  0  0  0  0
    1.1358    0.3404    6.1311 F   0  0  0  0  0  0  0  0  0  0  0  0
    0.2314   -2.4293    5.1142 F   0  0  0  0  0  0  0  0  0  0  0  0
   -1.7307   -2.6620    3.1492 F   0  0  0  0  0  0  0  0  0  0  0  0
   -2.2652   -2.5818    8.1790 F   0  0  0  0  0  0  0  0  0  0  0  0
   -4.4601   -2.8383    6.4848 F   0  0  0  0  0  0  0  0  0  0  0  0
   -3.4187    0.8147    9.0042 F   0  0  0  0  0  0  0  0  0  0  0  0
   -5.2900   -1.0736    9.5458 F   0  0  0  0  0  0  0  0  0  0  0  0
    1.8960    3.9783    3.5531 F   0  0  0  0  0  0  0  0  0  0  0  0
    1.4524    3.7540    6.2168 F   0  0  0  0  0  0  0  0  0  0  0  0
   -7.0128    3.7567    6.8950 F   0  0  0  0  0  0  0  0  0  0  0  0
   -5.3345    3.1692    4.8767 F   0  0  0  0  0  0  0  0  0  0  0  0
   -2.5839    2.9003    7.7997 F   0  0  0  0  0  0  0  0  0  0  0  0
   -4.5120    4.1548    9.2096 F   0  0  0  0  0  0  0  0  0  0  0  0
   -4.6722    6.2126    5.6732 F   0  0  0  0  0  0  0  0  0  0  0  0
   -3.3392    6.9616    7.9084 F   0  0  0  0  0  0  0  0  0  0  0  0
   -3.5357    0.1378    4.6598 F   0  0  0  0  0  0  0  0  0  0  0  0
   -1.3913    0.5332    6.4030 F   0  0  0  0  0  0  0  0  0  0  0  0
   -1.3431    4.3404    2.7643 F   0  0  0  0  0  0  0  0  0  0  0  0
   -2.3528    2.8883    4.8159 F   0  0  0  0  0  0  0  0  0  0  0  0
   -7.4972    0.5107    7.5742 F   0  0  0  0  0  0  0  0  0  0  0  0
   -5.9498   -0.0874    5.4493 F   0  0  0  0  0  0  0  0  0  0  0  0
   -0.1930    5.9477    6.7315 F   0  0  0  0  0  0  0  0  0  0  0  0
   -1.4387    7.1309    4.6310 F   0  0  0  0  0  0  0  0  0  0  0  0
  1  2  1  0
  1  3  1  0
  2  7  1  0
  2 14  1  0
  2 15  1  0
  3  4  1  0
  3 16  1  0
  3 17  1  0
  4  5  1  0
  4 30  1  0
  4 31  1  0
  5  8  1  0
  5 18  1  0
  5 19  1  0
  6  7  1  0
  6  9  1  0
  6 32  1  0
  6 33  1  0
  7 22  1  0
  7 23  1  0
  8 10  1  0
  8 20  1  0
  8 21  1  0
  9 11  1  0
  9 36  1  0
  9 37  1  0
 10 12  1  0
 10 34  1  0
 10 35  1  0
 11 13  1  0
 11 28  1  0
 11 29  1  0
 12 13  1  0
 12 24  1  0
 12 25  1  0
 13 26  1  0
 13 27  1  0
M  CHG  1   1   1
M  RAD  1   1   2
M  END
$$$$

     RDKit          3D

 37 37  0  0  0  0  0  0  0  0999 V2000
    0.0001    0.0000    3.1933 S   0  0  0  0  0  2  0  0  0  0  0  0
   -1.2306   -1.0307    4.5794 Si  0  0  0  0  0  4  0  0  0  0  0  0
    0.9938    1.6338    4.2485 Si  0  0  0  0  0  4  0  0  0  0  0  0
    2.3631    0.5799    5.5866 Si  0  0  0  0  0  4  0  0  0  0  0  0
    3.3468    1.7329    7.1640 Si  0  0  0  0  0  4  0  0  0  0  0  0
    1.0735   -3.9572    4.4121 Si  0  0  0  0  0  4  0  0  0  0  0  0
   -0.9498   -3.1832    4.6981 Si  0  0  0  0  0  4  0  0  0  0  0  0
    4.5177    0.1486    8.2993 Si  0  0  0  0  0  4  0  0  0  0  0  0
    1.3869   -5.8000    5.6355 Si  0  0  0  0  0  4  0  0  0  0  0  0
    5.9176   -0.8708    6.9313 Si  0  0  0  0  0  4  0  0  0  0  0  0
    3.2978   -5.8229    6.7212 Si  0  0  0  0  0  4  0  0  0  0  0  0
    5.5417   -2.9677    6.5367 Si  0  0  0  0  0  4  0  0  0  0  0  0
    3.8829   -3.9102    7.6458 Si  0  0  0  0  0  4  0  0  0  0  0  0
   -2.8451   -0.7291    4.0911 F   0  0  0  0  0  0  0  0  0  0  0  0
   -1.1412   -0.3203    6.1312 F   0  0  0  0  0  0  0  0  0  0  0  0
   -0.1881    2.4330    5.1142 F   0  0  0  0  0  0  0  0  0  0  0  0
    1.7776    2.6310    3.1491 F   0  0  0  0  0  0  0  0  0  0  0  0
    2.3111    2.5414    8.1788 F   0  0  0  0  0  0  0  0  0  0  0  0
    4.5101    2.7590    6.4844 F   0  0  0  0  0  0  0  0  0  0  0  0
    3.4044   -0.8750    9.0039 F   0  0  0  0  0  0  0  0  0  0  0  0
    5.3089    0.9800    9.5453 F   0  0  0  0  0  0  0  0  0  0  0  0
   -1.9658   -3.9442    3.5532 F   0  0  0  0  0  0  0  0  0  0  0  0
   -1.5181   -3.7277    6.2169 F   0  0  0  0  0  0  0  0  0  0  0  0
    6.9458   -3.8800    6.8944 F   0  0  0  0  0  0  0  0  0  0  0  0
    5.2780   -3.2630    4.8763 F   0  0  0  0  0  0  0  0  0  0  0  0
    2.5328   -2.9456    7.7995 F   0  0  0  0  0  0  0  0  0  0  0  0
    4.4386   -4.2339    9.2092 F   0  0  0  0  0  0  0  0  0  0  0  0
    4.5620   -6.2942    5.6728 F   0  0  0  0  0  0  0  0  0  0  0  0
    3.2162   -7.0196    7.9081 F   0  0  0  0  0  0  0  0  0  0  0  0
    3.5330   -0.2002    4.6595 F   0  0  0  0  0  0  0  0  0  0  0  0
    1.3821   -0.5577    6.4029 F   0  0  0  0  0  0  0  0  0  0  0  0
    1.2663   -4.3635    2.7642 F   0  0  0  0  0  0  0  0  0  0  0  0
    2.3017   -2.9294    4.8157 F   0  0  0  0  0  0  0  0  0  0  0  0
    7.4876   -0.6431    7.5736 F   0  0  0  0  0  0  0  0  0  0  0  0
    5.9508   -0.0177    5.4488 F   0  0  0  0  0  0  0  0  0  0  0  0
    0.0883   -5.9502    6.7315 F   0  0  0  0  0  0  0  0  0  0  0  0
    1.3127   -7.1552    4.6309 F   0  0  0  0  0  0  0  0  0  0  0  0
  1  2  1  0
  1  3  1  0
  2  7  1  0
  2 14  1  0
  2 15  1  0
  3  4  1  0
  3 16  1  0
  3 17  1  0
  4  5  1  0
  4 30  1  0
  4 31  1  0
  5  8  1  0
  5 18  1  0
  5 19  1  0
  6  7  1  0
  6  9  1  0
  6 32  1  0
  6 33  1  0
  7 22  1  0
  7 23  1  0
  8 10  1  0
  8 20  1  0
  8 21  1  0
  9 11  1  0
  9 36  1  0
  9 37  1  0
 10 12  1  0
 10 34  1  0
 10 35  1  0
 11 13  1  0
 11 28  1  0
 11 29  1  0
 12 13  1  0
 12 24  1  0
 12 25  1  0
 13 26  1  0
 13 27  1  0
M  CHG  1   1   1
M  RAD  1   1   2
M  END
$$$$
