
     RDKit          3D

 37 37  0  0  0  0  0  0  0  0999 V2000
   -1.5415    0.4262   -2.4716 S   0  0  0  0  0  2  0  0  0  0  0  0
   -2.7930    2.0859   -2.8647 Si  0  0  0  0  0  4  0  0  0  0  0  0
   -0.0361    0.1261   -3.9298 Si  0  0  0  0  0  4  0  0  0  0  0  0
    0.2811   -2.0919   -4.1732 Si  0  0  0  0  0  4  0  0  0  0  0  0
   -1.3071   -2.9021   -5.5529 Si  0  0  0  0  0  4  0  0  0  0  0  0
   -4.4880    4.0208   -5.4880 Si  0  0  0  0  0  4  0  0  0  0  0  0
   -2.9104    2.4877   -5.0494 Si  0  0  0  0  0  4  0  0  0  0  0  0
   -0.4965   -3.3896   -7.5305 Si  0  0  0  0  0  4  0  0  0  0  0  0
   -4.9344    3.8340   -7.6898 Si  0  0  0  0  0  4  0  0  0  0  0  0
   -1.1166   -2.0474   -9.1486 Si  0  0  0  0  0  4  0  0  0  0  0  0
   -5.0947    1.7002   -8.2706 Si  0  0  0  0  0  4  0  0  0  0  0  0
   -3.2027   -1.3501   -9.0114 Si  0  0  0  0  0  4  0  0  0  0  0  0
   -3.1911    0.9043   -9.0652 Si  0  0  0  0  0  4  0  0  0  0  0  0
   -2.3466    3.4761   -2.0607 F   0  0  0  0  0  0  0  0  0  0  0  0
   -4.3682    1.6844   -2.3433 F   0  0  0  0  0  0  0  0  0  0  0  0
    1.4484    0.7760   -3.4116 F   0  0  0  0  0  0  0  0  0  0  0  0
   -0.4144    0.7431   -5.4277 F   0  0  0  0  0  0  0  0  0  0  0  0
   -1.8783   -4.3361   -4.8239 F   0  0  0  0  0  0  0  0  0  0  0  0
   -2.5618   -1.8159   -5.5645 F   0  0  0  0  0  0  0  0  0  0  0  0
    1.2091   -3.3618   -7.4374 F   0  0  0  0  0  0  0  0  0  0  0  0
   -0.8964   -4.9896   -7.9699 F   0  0  0  0  0  0  0  0  0  0  0  0
   -3.4235    1.0483   -5.7967 F   0  0  0  0  0  0  0  0  0  0  0  0
   -1.4774    3.0490   -5.6820 F   0  0  0  0  0  0  0  0  0  0  0  0
   -4.0107   -1.9176   -7.6604 F   0  0  0  0  0  0  0  0  0  0  0  0
   -4.1190   -1.8412  -10.3670 F   0  0  0  0  0  0  0  0  0  0  0  0
   -1.8436    1.5202   -8.3037 F   0  0  0  0  0  0  0  0  0  0  0  0
   -3.0897    1.3393  -10.7092 F   0  0  0  0  0  0  0  0  0  0  0  0
   -6.2629    1.5850   -9.5088 F   0  0  0  0  0  0  0  0  0  0  0  0
   -5.6889    0.7840   -6.9784 F   0  0  0  0  0  0  0  0  0  0  0  0
    1.8044   -2.4310   -4.7535 F   0  0  0  0  0  0  0  0  0  0  0  0
    0.1330   -2.7702   -2.6347 F   0  0  0  0  0  0  0  0  0  0  0  0
   -3.8342    5.5489   -5.1506 F   0  0  0  0  0  0  0  0  0  0  0  0
   -5.8578    3.7700   -4.5790 F   0  0  0  0  0  0  0  0  0  0  0  0
   -0.0170   -0.7439   -9.2225 F   0  0  0  0  0  0  0  0  0  0  0  0
   -0.9332   -2.8750  -10.6313 F   0  0  0  0  0  0  0  0  0  0  0  0
   -3.7121    4.6034   -8.5715 F   0  0  0  0  0  0  0  0  0  0  0  0
   -6.3704    4.6158   -8.0153 F   0  0  0  0  0  0  0  0  0  0  0  0
  1  2  1  0
  1  3  1  0
  2  7  1  0
  2 14  1  0
  2 15  1  0
  3  4  1  0
  3 16  1  0
  3 17  1  0
  4  5  1  0
  4 30  1  0
  4 31  1  0
  5  8  1  0
  5 18  1  0
  5 19  1  0
  6  7  1  0
  6  9  1  0
  6 32  1  0
  6 33  1  0
  7 22  1  0
  7 23  1  0
  8 10  1  0
  8 20  1  0
  8 21  1  0
  9 11  1  0
  9 36  1  0
  9 37  1  0
 10 12  1  0
 10 34  1  0
 10 35  1  0
 11 13  1  0
 11 28  1  0
 11 29  1  0
 12 13  1  0
 12 24  1  0
 12 25  1  0
 13 26  1  0
 13 27  1  0
M  CHG  1   1   1
M  RAD  1   1   2
M  END
$$$$
