
     RDKit          3D

 37 37  0  0  0  0  0  0  0  0999 V2000
    0.0568    0.0705   -3.2761 S   0  0  0  0  0  2  0  0  0  0  0  0
   -1.5243   -1.0020   -4.2021 Si  0  0  0  0  0  4  0  0  0  0  0  0
    0.4082    1.8957   -4.3499 Si  0  0  0  0  0  4  0  0  0  0  0  0
    0.6986    1.4917   -6.5407 Si  0  0  0  0  0  4  0  0  0  0  0  0
    2.5937    2.4492   -7.1664 Si  0  0  0  0  0  4  0  0  0  0  0  0
    1.1078   -3.5859   -4.2459 Si  0  0  0  0  0  4  0  0  0  0  0  0
   -0.9446   -3.0287   -4.8511 Si  0  0  0  0  0  4  0  0  0  0  0  0
    3.3463    1.7965   -9.1066 Si  0  0  0  0  0  4  0  0  0  0  0  0
    2.5453   -3.4410   -5.9527 Si  0  0  0  0  0  4  0  0  0  0  0  0
    2.8385   -0.2553   -9.6895 Si  0  0  0  0  0  4  0  0  0  0  0  0
    4.0119   -1.8351   -5.4626 Si  0  0  0  0  0  4  0  0  0  0  0  0
    4.4193   -1.7325   -9.1275 Si  0  0  0  0  0  4  0  0  0  0  0  0
    5.3072   -1.3104   -7.1616 Si  0  0  0  0  0  4  0  0  0  0  0  0
   -2.8355   -1.0390   -3.1136 F   0  0  0  0  0  0  0  0  0  0  0  0
   -2.0892   -0.1532   -5.5711 F   0  0  0  0  0  0  0  0  0  0  0  0
   -0.8961    2.9474   -4.1349 F   0  0  0  0  0  0  0  0  0  0  0  0
    1.7740    2.6325   -3.6862 F   0  0  0  0  0  0  0  0  0  0  0  0
    2.3063    4.1328   -7.2218 F   0  0  0  0  0  0  0  0  0  0  0  0
    3.7400    2.2284   -5.9245 F   0  0  0  0  0  0  0  0  0  0  0  0
    2.7871    2.8719  -10.3091 F   0  0  0  0  0  0  0  0  0  0  0  0
    5.0474    1.9556   -9.1185 F   0  0  0  0  0  0  0  0  0  0  0  0
   -2.0645   -4.1330   -4.1947 F   0  0  0  0  0  0  0  0  0  0  0  0
   -1.0597   -3.2051   -6.5399 F   0  0  0  0  0  0  0  0  0  0  0  0
    5.6458   -1.6148  -10.3062 F   0  0  0  0  0  0  0  0  0  0  0  0
    3.8080   -3.2966   -9.2219 F   0  0  0  0  0  0  0  0  0  0  0  0
    6.7647   -2.1890   -7.0339 F   0  0  0  0  0  0  0  0  0  0  0  0
    5.7399    0.3234   -7.0954 F   0  0  0  0  0  0  0  0  0  0  0  0
    3.1713   -0.5213   -4.8684 F   0  0  0  0  0  0  0  0  0  0  0  0
    4.9887   -2.4200   -4.1916 F   0  0  0  0  0  0  0  0  0  0  0  0
    0.6868   -0.1587   -6.7520 F   0  0  0  0  0  0  0  0  0  0  0  0
   -0.6134    2.1288   -7.4230 F   0  0  0  0  0  0  0  0  0  0  0  0
    1.6353   -2.6767   -2.9208 F   0  0  0  0  0  0  0  0  0  0  0  0
    1.0832   -5.2109   -3.7282 F   0  0  0  0  0  0  0  0  0  0  0  0
    1.3263   -0.7577   -9.1466 F   0  0  0  0  0  0  0  0  0  0  0  0
    2.7416   -0.3064  -11.3972 F   0  0  0  0  0  0  0  0  0  0  0  0
    3.4250   -4.8883   -6.1159 F   0  0  0  0  0  0  0  0  0  0  0  0
    1.7726   -3.1601   -7.4049 F   0  0  0  0  0  0  0  0  0  0  0  0
  1  2  1  0
  1  3  1  0
  2  7  1  0
  2 14  1  0
  2 15  1  0
  3  4  1  0
  3 16  1  0
  3 17  1  0
  4  5  1  0
  4 30  1  0
  4 31  1  0
  5  8  1  0
  5 18  1  0
  5 19  1  0
  6  7  1  0
  6  9  1  0
  6 32  1  0
  6 33  1  0
  7 22  1  0
  7 23  1  0
  8 10  1  0
  8 20  1  0
  8 21  1  0
  9 11  1  0
  9 36  1  0
  9 37  1  0
 10 12  1  0
 10 34  1  0
 10 35  1  0
 11 13  1  0
 11 28  1  0
 11 29  1  0
 12 13  1  0
 12 24  1  0
 12 25  1  0
 13 26  1  0
 13 27  1  0
M  CHG  1   1   1
M  RAD  1   1   2
M  END
$$$$

     RDKit          3D

 37 37  0  0  0  0  0  0  0  0999 V2000
    0.0568    0.0705   -3.2761 S   0  0  0  0  0  2  0  0  0  0  0  0
    1.2499   -1.6609   -3.8190 Si  0  0  0  0  0  4  0  0  0  0  0  0
    0.8798    1.8184   -4.1563 Si  0  0  0  0  0  4  0  0  0  0  0  0
   -0.6451    3.3475   -4.6448 Si  0  0  0  0  0  4  0  0  0  0  0  0
   -2.2906    2.5878   -5.8965 Si  0  0  0  0  0  4  0  0  0  0  0  0
    1.2048   -4.1548   -6.5460 Si  0  0  0  0  0  4  0  0  0  0  0  0
    0.9782   -1.9997   -5.9927 Si  0  0  0  0  0  4  0  0  0  0  0  0
   -2.4770    3.6943   -7.8250 Si  0  0  0  0  0  4  0  0  0  0  0  0
   -0.0194   -4.4635   -8.4198 Si  0  0  0  0  0  4  0  0  0  0  0  0
   -2.2992    2.3034   -9.5740 Si  0  0  0  0  0  4  0  0  0  0  0  0
    0.2428   -2.6853   -9.7285 Si  0  0  0  0  0  4  0  0  0  0  0  0
   -0.7093    0.7994   -9.2746 Si  0  0  0  0  0  4  0  0  0  0  0  0
   -1.4498   -1.2841   -9.6581 Si  0  0  0  0  0  4  0  0  0  0  0  0
    0.8338   -2.9929   -2.9127 F   0  0  0  0  0  0  0  0  0  0  0  0
    2.8691   -1.2712   -3.5014 F   0  0  0  0  0  0  0  0  0  0  0  0
    1.9345    2.5171   -3.0086 F   0  0  0  0  0  0  0  0  0  0  0  0
    1.8590    1.4486   -5.4999 F   0  0  0  0  0  0  0  0  0  0  0  0
   -3.7519    2.8139   -5.0407 F   0  0  0  0  0  0  0  0  0  0  0  0
   -2.1834    0.9611   -6.2397 F   0  0  0  0  0  0  0  0  0  0  0  0
   -1.3075    4.9315   -7.9320 F   0  0  0  0  0  0  0  0  0  0  0  0
   -3.9791    4.4542   -7.9639 F   0  0  0  0  0  0  0  0  0  0  0  0
   -0.6478   -1.6141   -6.3402 F   0  0  0  0  0  0  0  0  0  0  0  0
    2.0038   -1.0378   -6.9044 F   0  0  0  0  0  0  0  0  0  0  0  0
   -0.0611    0.9652   -7.7555 F   0  0  0  0  0  0  0  0  0  0  0  0
    0.5388    1.0754  -10.4052 F   0  0  0  0  0  0  0  0  0  0  0  0
   -2.1791   -1.2489  -11.2021 F   0  0  0  0  0  0  0  0  0  0  0  0
   -2.6469   -1.7232   -8.5744 F   0  0  0  0  0  0  0  0  0  0  0  0
    0.5084   -3.2621  -11.3132 F   0  0  0  0  0  0  0  0  0  0  0  0
    1.6842   -1.8958   -9.2844 F   0  0  0  0  0  0  0  0  0  0  0  0
   -1.2183    3.9980   -3.1760 F   0  0  0  0  0  0  0  0  0  0  0  0
    0.1368    4.6191   -5.4441 F   0  0  0  0  0  0  0  0  0  0  0  0
    2.8109   -4.4644   -6.9335 F   0  0  0  0  0  0  0  0  0  0  0  0
    0.6470   -5.1418   -5.3066 F   0  0  0  0  0  0  0  0  0  0  0  0
   -1.9451    3.2773  -10.9298 F   0  0  0  0  0  0  0  0  0  0  0  0
   -3.7825    1.5595   -9.9059 F   0  0  0  0  0  0  0  0  0  0  0  0
    0.5156   -5.8781   -9.1683 F   0  0  0  0  0  0  0  0  0  0  0  0
   -1.6285   -4.6459   -7.9515 F   0  0  0  0  0  0  0  0  0  0  0  0
  1  2  1  0
  1  3  1  0
  2  7  1  0
  2 14  1  0
  2 15  1  0
  3  4  1  0
  3 16  1  0
  3 17  1  0
  4  5  1  0
  4 30  1  0
  4 31  1  0
  5  8  1  0
  5 18  1  0
  5 19  1  0
  6  7  1  0
  6  9  1  0
  6 32  1  0
  6 33  1  0
  7 22  1  0
  7 23  1  0
  8 10  1  0
  8 20  1  0
  8 21  1  0
  9 11  1  0
  9 36  1  0
  9 37  1  0
 10 12  1  0
 10 34  1  0
 10 35  1  0
 11 13  1  0
 11 28  1  0
 11 29  1  0
 12 13  1  0
 12 24  1  0
 12 25  1  0
 13 26  1  0
 13 27  1  0
M  CHG  1   1   1
M  RAD  1   1   2
M  END
$$$$

     RDKit          3D

 37 37  0  0  0  0  0  0  0  0999 V2000
    0.0568    0.0705   -3.2761 S   0  0  0  0  0  2  0  0  0  0  0  0
   -1.8556    0.0113   -4.1964 Si  0  0  0  0  0  4  0  0  0  0  0  0
    1.3166    1.4506   -4.3325 Si  0  0  0  0  0  4  0  0  0  0  0  0
    1.3415    0.9892   -6.5311 Si  0  0  0  0  0  4  0  0  0  0  0  0
    3.4540    0.8095   -7.1672 Si  0  0  0  0  0  4  0  0  0  0  0  0
   -0.9887   -3.5726   -4.3004 Si  0  0  0  0  0  4  0  0  0  0  0  0
   -2.4379   -2.0047   -4.8755 Si  0  0  0  0  0  4  0  0  0  0  0  0
    3.7405   -0.1114   -9.1234 Si  0  0  0  0  0  4  0  0  0  0  0  0
    0.3018   -4.1825   -6.0219 Si  0  0  0  0  0  4  0  0  0  0  0  0
    2.2223   -1.5746   -9.7243 Si  0  0  0  0  0  4  0  0  0  0  0  0
    2.3976   -3.6032   -5.5299 Si  0  0  0  0  0  4  0  0  0  0  0  0
    2.7845   -3.6731   -9.1978 Si  0  0  0  0  0  4  0  0  0  0  0  0
    3.7684   -3.8158   -7.2374 Si  0  0  0  0  0  4  0  0  0  0  0  0
   -2.9840    0.6559   -3.0934 F   0  0  0  0  0  0  0  0  0  0  0  0
   -1.8909    1.0521   -5.5488 F   0  0  0  0  0  0  0  0  0  0  0  0
    0.7668    3.0294   -4.0904 F   0  0  0  0  0  0  0  0  0  0  0  0
    2.8678    1.3431   -3.6759 F   0  0  0  0  0  0  0  0  0  0  0  0
    4.1004    2.3911   -7.1997 F   0  0  0  0  0  0  0  0  0  0  0  0
    4.3145   -0.0039   -5.9412 F   0  0  0  0  0  0  0  0  0  0  0  0
    3.8306    1.1161  -10.3068 F   0  0  0  0  0  0  0  0  0  0  0  0
    5.2683   -0.8757   -9.1529 F   0  0  0  0  0  0  0  0  0  0  0  0
   -3.9701   -2.3601   -4.2193 F   0  0  0  0  0  0  0  0  0  0  0  0
   -2.6349   -2.0666   -6.5648 F   0  0  0  0  0  0  0  0  0  0  0  0
    3.8835   -4.2030  -10.3890 F   0  0  0  0  0  0  0  0  0  0  0  0
    1.4382   -4.6756   -9.3033 F   0  0  0  0  0  0  0  0  0  0  0  0
    4.5410   -5.3342   -7.1367 F   0  0  0  0  0  0  0  0  0  0  0  0
    5.0000   -2.6593   -7.1572 F   0  0  0  0  0  0  0  0  0  0  0  0
    2.3812   -2.0533   -4.9108 F   0  0  0  0  0  0  0  0  0  0  0  0
    2.9217   -4.6364   -4.2771 F   0  0  0  0  0  0  0  0  0  0  0  0
    0.4579   -0.4017   -6.7614 F   0  0  0  0  0  0  0  0  0  0  0  0
    0.5619    2.2377   -7.3907 F   0  0  0  0  0  0  0  0  0  0  0  0
   -0.0554   -3.1011   -2.9709 F   0  0  0  0  0  0  0  0  0  0  0  0
   -1.8672   -4.9468   -3.8014 F   0  0  0  0  0  0  0  0  0  0  0  0
    0.6752   -1.2099   -9.1700 F   0  0  0  0  0  0  0  0  0  0  0  0
    2.1069   -1.5395  -11.4313 F   0  0  0  0  0  0  0  0  0  0  0  0
    0.2823   -5.8733   -6.2119 F   0  0  0  0  0  0  0  0  0  0  0  0
   -0.2105   -3.5124   -7.4617 F   0  0  0  0  0  0  0  0  0  0  0  0
  1  2  1  0
  1  3  1  0
  2  7  1  0
  2 14  1  0
  2 15  1  0
  3  4  1  0
  3 16  1  0
  3 17  1  0
  4  5  1  0
  4 30  1  0
  4 31  1  0
  5  8  1  0
  5 18  1  0
  5 19  1  0
  6  7  1  0
  6  9  1  0
  6 32  1  0
  6 33  1  0
  7 22  1  0
  7 23  1  0
  8 10  1  0
  8 20  1  0
  8 21  1  0
  9 11  1  0
  9 36  1  0
  9 37  1  0
 10 12  1  0
 10 34  1  0
 10 35  1  0
 11 13  1  0
 11 28  1  0
 11 29  1  0
 12 13  1  0
 12 24  1  0
 12 25  1  0
 13 26  1  0
 13 27  1  0
M  CHG  1   1   1
M  RAD  1   1   2
M  END
$$$$

     RDKit          3D

 37 37  0  0  0  0  0  0  0  0999 V2000
    0.0568    0.0705   -3.2761 S   0  0  0  0  0  2  0  0  0  0  0  0
    1.0679    1.6747   -4.1418 Si  0  0  0  0  0  4  0  0  0  0  0  0
   -1.9425   -0.2124   -3.8044 Si  0  0  0  0  0  4  0  0  0  0  0  0
   -2.2381   -1.7732   -5.3845 Si  0  0  0  0  0  4  0  0  0  0  0  0
   -0.7247   -1.7122   -6.9538 Si  0  0  0  0  0  4  0  0  0  0  0  0
    1.0076    4.8153   -5.9135 Si  0  0  0  0  0  4  0  0  0  0  0  0
   -0.0932    3.5085   -4.4420 Si  0  0  0  0  0  4  0  0  0  0  0  0
   -0.9871   -0.1358   -8.4687 Si  0  0  0  0  0  4  0  0  0  0  0  0
   -0.3060    6.3393   -6.7999 Si  0  0  0  0  0  4  0  0  0  0  0  0
   -3.0497    0.3655   -8.9631 Si  0  0  0  0  0  4  0  0  0  0  0  0
   -2.3200    5.5919   -7.3238 Si  0  0  0  0  0  4  0  0  0  0  0  0
   -3.6754    2.4053   -8.3388 Si  0  0  0  0  0  4  0  0  0  0  0  0
   -2.2574    3.9857   -8.8730 Si  0  0  0  0  0  4  0  0  0  0  0  0
    2.4039    2.0622   -3.1440 F   0  0  0  0  0  0  0  0  0  0  0  0
    1.7701    1.2273   -5.6335 F   0  0  0  0  0  0  0  0  0  0  0  0
   -2.7655    1.1610   -4.2716 F   0  0  0  0  0  0  0  0  0  0  0  0
   -2.7750   -0.8012   -2.4275 F   0  0  0  0  0  0  0  0  0  0  0  0
   -0.6967   -3.2239   -7.7507 F   0  0  0  0  0  0  0  0  0  0  0  0
    0.8065   -1.5470   -6.2408 F   0  0  0  0  0  0  0  0  0  0  0  0
   -0.1864   -0.6663   -9.8861 F   0  0  0  0  0  0  0  0  0  0  0  0
   -0.1184    1.2242   -7.9614 F   0  0  0  0  0  0  0  0  0  0  0  0
   -0.1683    4.3642   -2.9875 F   0  0  0  0  0  0  0  0  0  0  0  0
   -1.6142    3.2881   -5.0578 F   0  0  0  0  0  0  0  0  0  0  0  0
   -4.0003    2.4720   -6.6791 F   0  0  0  0  0  0  0  0  0  0  0  0
   -5.1477    2.7234   -9.1092 F   0  0  0  0  0  0  0  0  0  0  0  0
   -0.6705    3.4767   -9.0157 F   0  0  0  0  0  0  0  0  0  0  0  0
   -2.7023    4.6242  -10.3935 F   0  0  0  0  0  0  0  0  0  0  0  0
   -3.1899    6.9080   -7.9793 F   0  0  0  0  0  0  0  0  0  0  0  0
   -3.1592    5.1076   -5.9507 F   0  0  0  0  0  0  0  0  0  0  0  0
   -2.1123   -3.2828   -4.5907 F   0  0  0  0  0  0  0  0  0  0  0  0
   -3.8114   -1.6526   -5.9304 F   0  0  0  0  0  0  0  0  0  0  0  0
    1.7665    3.8655   -7.0832 F   0  0  0  0  0  0  0  0  0  0  0  0
    2.2279    5.5922   -5.0392 F   0  0  0  0  0  0  0  0  0  0  0  0
   -4.1715   -0.7247   -8.2777 F   0  0  0  0  0  0  0  0  0  0  0  0
   -3.3226    0.2702  -10.6401 F   0  0  0  0  0  0  0  0  0  0  0  0
    0.4428    6.9518   -8.1907 F   0  0  0  0  0  0  0  0  0  0  0  0
   -0.4851    7.6311   -5.7322 F   0  0  0  0  0  0  0  0  0  0  0  0
  1  2  1  0
  1  3  1  0
  2  7  1  0
  2 14  1  0
  2 15  1  0
  3  4  1  0
  3 16  1  0
  3 17  1  0
  4  5  1  0
  4 30  1  0
  4 31  1  0
  5  8  1  0
  5 18  1  0
  5 19  1  0
  6  7  1  0
  6  9  1  0
  6 32  1  0
  6 33  1  0
  7 22  1  0
  7 23  1  0
  8 10  1  0
  8 20  1  0
  8 21  1  0
  9 11  1  0
  9 36  1  0
  9 37  1  0
 10 12  1  0
 10 34  1  0
 10 35  1  0
 11 13  1  0
 11 28  1  0
 11 29  1  0
 12 13  1  0
 12 24  1  0
 12 25  1  0
 13 26  1  0
 13 27  1  0
M  CHG  1   1   1
M  RAD  1   1   2
M  END
$$$$

     RDKit          3D

 37 37  0  0  0  0  0  0  0  0999 V2000
    0.0568    0.0705   -3.2761 S   0  0  0  0  0  2  0  0  0  0  0  0
   -1.3014    1.4412   -4.1616 Si  0  0  0  0  0  4  0  0  0  0  0  0
    1.9229    0.1271   -4.3355 Si  0  0  0  0  0  4  0  0  0  0  0  0
    1.5999   -0.1562   -6.5406 Si  0  0  0  0  0  4  0  0  0  0  0  0
    2.9184   -1.7999   -7.2183 Si  0  0  0  0  0  4  0  0  0  0  0  0
   -3.3117   -1.6467   -4.3337 Si  0  0  0  0  0  4  0  0  0  0  0  0
   -3.1683    0.4963   -4.8590 Si  0  0  0  0  0  4  0  0  0  0  0  0
    2.4415   -2.5945   -9.1927 Si  0  0  0  0  0  4  0  0  0  0  0  0
   -2.8727   -2.9630   -6.0874 Si  0  0  0  0  0  4  0  0  0  0  0  0
    0.3340   -2.4815   -9.7865 Si  0  0  0  0  0  4  0  0  0  0  0  0
   -1.0114   -4.0999   -5.6260 Si  0  0  0  0  0  4  0  0  0  0  0  0
   -0.8045   -4.3431   -9.3010 Si  0  0  0  0  0  4  0  0  0  0  0  0
   -0.2284   -5.2020   -7.3614 Si  0  0  0  0  0  4  0  0  0  0  0  0
   -1.6053    2.6780   -3.0286 F   0  0  0  0  0  0  0  0  0  0  0  0
   -0.5719    2.2132   -5.4979 F   0  0  0  0  0  0  0  0  0  0  0  0
    2.6936    1.6049   -4.0603 F   0  0  0  0  0  0  0  0  0  0  0  0
    2.9112   -1.0893   -3.7094 F   0  0  0  0  0  0  0  0  0  0  0  0
    4.5120   -1.1831   -7.2398 F   0  0  0  0  0  0  0  0  0  0  0  0
    2.9206   -3.0124   -6.0203 F   0  0  0  0  0  0  0  0  0  0  0  0
    3.3931   -1.7895  -10.3595 F   0  0  0  0  0  0  0  0  0  0  0  0
    2.9348   -4.2289   -9.2615 F   0  0  0  0  0  0  0  0  0  0  0  0
   -4.4774    1.3505   -4.1798 F   0  0  0  0  0  0  0  0  0  0  0  0
   -3.3522    0.6367   -6.5451 F   0  0  0  0  0  0  0  0  0  0  0  0
   -0.4376   -5.4777  -10.5200 F   0  0  0  0  0  0  0  0  0  0  0  0
   -2.4579   -4.0504   -9.3962 F   0  0  0  0  0  0  0  0  0  0  0  0
   -0.8015   -6.8082   -7.2972 F   0  0  0  0  0  0  0  0  0  0  0  0
    1.4582   -5.3050   -7.2872 F   0  0  0  0  0  0  0  0  0  0  0  0
    0.1054   -3.0384   -4.9842 F   0  0  0  0  0  0  0  0  0  0  0  0
   -1.4000   -5.2194   -4.3982 F   0  0  0  0  0  0  0  0  0  0  0  0
   -0.0186   -0.4634   -6.7748 F   0  0  0  0  0  0  0  0  0  0  0  0
    1.9703    1.2877   -7.3675 F   0  0  0  0  0  0  0  0  0  0  0  0
   -2.3253   -2.0324   -3.0150 F   0  0  0  0  0  0  0  0  0  0  0  0
   -4.9130   -1.9633   -3.8386 F   0  0  0  0  0  0  0  0  0  0  0  0
   -0.4621   -1.1199   -9.1984 F   0  0  0  0  0  0  0  0  0  0  0  0
    0.2766   -2.3336  -11.4904 F   0  0  0  0  0  0  0  0  0  0  0  0
   -4.1158   -4.1050   -6.3016 F   0  0  0  0  0  0  0  0  0  0  0  0
   -2.7405   -2.0968   -7.5077 F   0  0  0  0  0  0  0  0  0  0  0  0
  1  2  1  0
  1  3  1  0
  2  7  1  0
  2 14  1  0
  2 15  1  0
  3  4  1  0
  3 16  1  0
  3 17  1  0
  4  5  1  0
  4 30  1  0
  4 31  1  0
  5  8  1  0
  5 18  1  0
  5 19  1  0
  6  7  1  0
  6  9  1  0
  6 32  1  0
  6 33  1  0
  7 22  1  0
  7 23  1  0
  8 10  1  0
  8 20  1  0
  8 21  1  0
  9 11  1  0
  9 36  1  0
  9 37  1  0
 10 12  1  0
 10 34  1  0
 10 35  1  0
 11 13  1  0
 11 28  1  0
 11 29  1  0
 12 13  1  0
 12 24  1  0
 12 25  1  0
 13 26  1  0
 13 27  1  0
M  CHG  1   1   1
M  RAD  1   1   2
M  END
$$$$

     RDKit          3D

 37 37  0  0  0  0  0  0  0  0999 V2000
    0.0568    0.0705   -3.2761 S   0  0  0  0  0  2  0  0  0  0  0  0
   -1.5339   -0.9876   -4.2022 Si  0  0  0  0  0  4  0  0  0  0  0  0
    0.4244    1.8927   -4.3495 Si  0  0  0  0  0  4  0  0  0  0  0  0
    0.7109    1.4867   -6.5405 Si  0  0  0  0  0  4  0  0  0  0  0  0
    2.6143    2.4273   -7.1662 Si  0  0  0  0  0  4  0  0  0  0  0  0
    1.0750   -3.5949   -4.2469 Si  0  0  0  0  0  4  0  0  0  0  0  0
   -0.9724   -3.0192   -4.8517 Si  0  0  0  0  0  4  0  0  0  0  0  0
    3.3608    1.7683   -9.1066 Si  0  0  0  0  0  4  0  0  0  0  0  0
    2.5135   -3.4625   -5.9539 Si  0  0  0  0  0  4  0  0  0  0  0  0
    2.8346   -0.2786   -9.6899 Si  0  0  0  0  0  4  0  0  0  0  0  0
    3.9944   -1.8699   -5.4636 Si  0  0  0  0  0  4  0  0  0  0  0  0
    4.4023   -1.7701   -9.1285 Si  0  0  0  0  0  4  0  0  0  0  0  0
    5.2942   -1.3564   -7.1626 Si  0  0  0  0  0  4  0  0  0  0  0  0
   -2.8452   -1.0132   -3.1135 F   0  0  0  0  0  0  0  0  0  0  0  0
   -2.0914   -0.1335   -5.5709 F   0  0  0  0  0  0  0  0  0  0  0  0
   -0.8704    2.9560   -4.1341 F   0  0  0  0  0  0  0  0  0  0  0  0
    1.7967    2.6172   -3.6858 F   0  0  0  0  0  0  0  0  0  0  0  0
    2.3420    4.1135   -7.2212 F   0  0  0  0  0  0  0  0  0  0  0  0
    3.7588    2.1960   -5.9244 F   0  0  0  0  0  0  0  0  0  0  0  0
    2.8112    2.8490  -10.3088 F   0  0  0  0  0  0  0  0  0  0  0  0
    5.0633    1.9122   -9.1187 F   0  0  0  0  0  0  0  0  0  0  0  0
   -2.1021   -4.1137   -4.1954 F   0  0  0  0  0  0  0  0  0  0  0  0
   -1.0894   -3.1942   -6.5405 F   0  0  0  0  0  0  0  0  0  0  0  0
    5.6297   -1.6631  -10.3073 F   0  0  0  0  0  0  0  0  0  0  0  0
    3.7770   -3.3286   -9.2231 F   0  0  0  0  0  0  0  0  0  0  0  0
    6.7438   -2.2480   -7.0353 F   0  0  0  0  0  0  0  0  0  0  0  0
    5.7415    0.2735   -7.0961 F   0  0  0  0  0  0  0  0  0  0  0  0
    3.1656   -0.5488   -4.8689 F   0  0  0  0  0  0  0  0  0  0  0  0
    4.9661   -2.4638   -4.1928 F   0  0  0  0  0  0  0  0  0  0  0  0
    0.6843   -0.1635   -6.7521 F   0  0  0  0  0  0  0  0  0  0  0  0
   -0.5955    2.1357   -7.4224 F   0  0  0  0  0  0  0  0  0  0  0  0
    1.6107   -2.6907   -2.9216 F   0  0  0  0  0  0  0  0  0  0  0  0
    1.0359   -5.2198   -3.7295 F   0  0  0  0  0  0  0  0  0  0  0  0
    1.3181   -0.7676   -9.1469 F   0  0  0  0  0  0  0  0  0  0  0  0
    2.7371   -0.3285  -11.3976 F   0  0  0  0  0  0  0  0  0  0  0  0
    3.3802   -4.9176   -6.1174 F   0  0  0  0  0  0  0  0  0  0  0  0
    1.7432   -3.1744   -7.4059 F   0  0  0  0  0  0  0  0  0  0  0  0
  1  2  1  0
  1  3  1  0
  2  7  1  0
  2 14  1  0
  2 15  1  0
  3  4  1  0
  3 16  1  0
  3 17  1  0
  4  5  1  0
  4 30  1  0
  4 31  1  0
  5  8  1  0
  5 18  1  0
  5 19  1  0
  6  7  1  0
  6  9  1  0
  6 32  1  0
  6 33  1  0
  7 22  1  0
  7 23  1  0
  8 10  1  0
  8 20  1  0
  8 21  1  0
  9 11  1  0
  9 36  1  0
  9 37  1  0
 10 12  1  0
 10 34  1  0
 10 35  1  0
 11 13  1  0
 11 28  1  0
 11 29  1  0
 12 13  1  0
 12 24  1  0
 12 25  1  0
 13 26  1  0
 13 27  1  0
M  CHG  1   1   1
M  RAD  1   1   2
M  END
$$$$

     RDKit          3D

 37 37  0  0  0  0  0  0  0  0999 V2000
    0.0568    0.0705   -3.2761 S   0  0  0  0  0  2  0  0  0  0  0  0
    1.2343   -1.6713   -3.8196 Si  0  0  0  0  0  4  0  0  0  0  0  0
    0.8952    1.8111   -4.1560 Si  0  0  0  0  0  4  0  0  0  0  0  0
   -0.6160    3.3539   -4.6439 Si  0  0  0  0  0  4  0  0  0  0  0  0
   -2.2683    2.6093   -5.8956 Si  0  0  0  0  0  4  0  0  0  0  0  0
    1.1666   -4.1641   -6.5472 Si  0  0  0  0  0  4  0  0  0  0  0  0
    0.9593   -2.0073   -5.9933 Si  0  0  0  0  0  4  0  0  0  0  0  0
   -2.4451    3.7179   -7.8239 Si  0  0  0  0  0  4  0  0  0  0  0  0
   -0.0606   -4.4614   -8.4208 Si  0  0  0  0  0  4  0  0  0  0  0  0
   -2.2799    2.3258   -9.5732 Si  0  0  0  0  0  4  0  0  0  0  0  0
    0.2174   -2.6854   -9.7292 Si  0  0  0  0  0  4  0  0  0  0  0  0
   -0.7035    0.8076   -9.2744 Si  0  0  0  0  0  4  0  0  0  0  0  0
   -1.4627   -1.2691   -9.6582 Si  0  0  0  0  0  4  0  0  0  0  0  0
    0.8065   -2.9998   -2.9135 F   0  0  0  0  0  0  0  0  0  0  0  0
    2.8569   -1.2963   -3.5021 F   0  0  0  0  0  0  0  0  0  0  0  0
    1.9563    2.5001   -3.0083 F   0  0  0  0  0  0  0  0  0  0  0  0
    1.8710    1.4329   -5.4998 F   0  0  0  0  0  0  0  0  0  0  0  0
   -3.7275    2.8482   -5.0396 F   0  0  0  0  0  0  0  0  0  0  0  0
   -2.1757    0.9818   -6.2392 F   0  0  0  0  0  0  0  0  0  0  0  0
   -1.2646    4.9446   -7.9307 F   0  0  0  0  0  0  0  0  0  0  0  0
   -3.9403    4.4912   -7.9624 F   0  0  0  0  0  0  0  0  0  0  0  0
   -0.6632   -1.6070   -6.3405 F   0  0  0  0  0  0  0  0  0  0  0  0
    1.9934   -1.0543   -6.9049 F   0  0  0  0  0  0  0  0  0  0  0  0
   -0.0536    0.9673   -7.7552 F   0  0  0  0  0  0  0  0  0  0  0  0
    0.5469    1.0727  -10.4050 F   0  0  0  0  0  0  0  0  0  0  0  0
   -2.1918   -1.2270  -11.2021 F   0  0  0  0  0  0  0  0  0  0  0  0
   -2.6635   -1.6977   -8.5745 F   0  0  0  0  0  0  0  0  0  0  0  0
    0.4776   -3.2641  -11.3141 F   0  0  0  0  0  0  0  0  0  0  0  0
    1.6658   -1.9088   -9.2851 F   0  0  0  0  0  0  0  0  0  0  0  0
   -1.1831    4.0092   -3.1749 F   0  0  0  0  0  0  0  0  0  0  0  0
    0.1772    4.6187   -5.4431 F   0  0  0  0  0  0  0  0  0  0  0  0
    2.7698   -4.4880   -6.9349 F   0  0  0  0  0  0  0  0  0  0  0  0
    0.6002   -5.1464   -5.3079 F   0  0  0  0  0  0  0  0  0  0  0  0
   -1.9173    3.2969  -10.9288 F   0  0  0  0  0  0  0  0  0  0  0  0
   -3.7699    1.5953   -9.9051 F   0  0  0  0  0  0  0  0  0  0  0  0
    0.4617   -5.8806   -9.1697 F   0  0  0  0  0  0  0  0  0  0  0  0
   -1.6712   -4.6296   -7.9524 F   0  0  0  0  0  0  0  0  0  0  0  0
  1  2  1  0
  1  3  1  0
  2  7  1  0
  2 14  1  0
  2 15  1  0
  3  4  1  0
  3 16  1  0
  3 17  1  0
  4  5  1  0
  4 30  1  0
  4 31  1  0
  5  8  1  0
  5 18  1  0
  5 19  1  0
  6  7  1  0
  6  9  1  0
  6 32  1  0
  6 33  1  0
  7 22  1  0
  7 23  1  0
  8 10  1  0
  8 20  1  0
  8 21  1  0
  9 11  1  0
  9 36  1  0
  9 37  1  0
 10 12  1  0
 10 34  1  0
 10 35  1  0
 11 13  1  0
 11 28  1  0
 11 29  1  0
 12 13  1  0
 12 24  1  0
 12 25  1  0
 13 26  1  0
 13 27  1  0
M  CHG  1   1   1
M  RAD  1   1   2
M  END
$$$$

     RDKit          3D

 37 37  0  0  0  0  0  0  0  0999 V2000
    0.0568    0.0705   -3.2761 S   0  0  0  0  0  2  0  0  0  0  0  0
   -1.5972   -0.8856   -4.2024 Si  0  0  0  0  0  4  0  0  0  0  0  0
    0.5356    1.8682   -4.3470 Si  0  0  0  0  0  4  0  0  0  0  0  0
    0.7946    1.4488   -6.5388 Si  0  0  0  0  0  4  0  0  0  0  0  0
    2.7521    2.2708   -7.1648 Si  0  0  0  0  0  4  0  0  0  0  0  0
    0.8453   -3.6493   -4.2536 Si  0  0  0  0  0  4  0  0  0  0  0  0
   -1.1631   -2.9470   -4.8556 Si  0  0  0  0  0  4  0  0  0  0  0  0
    3.4548    1.5701   -9.1070 Si  0  0  0  0  0  4  0  0  0  0  0  0
    2.2878   -3.6034   -5.9618 Si  0  0  0  0  0  4  0  0  0  0  0  0
    2.8024   -0.4394   -9.6930 Si  0  0  0  0  0  4  0  0  0  0  0  0
    3.8649   -2.1064   -5.4703 Si  0  0  0  0  0  4  0  0  0  0  0  0
    4.2751   -2.0260   -9.1354 Si  0  0  0  0  0  4  0  0  0  0  0  0
    5.1926   -1.6715   -7.1697 Si  0  0  0  0  0  4  0  0  0  0  0  0
   -2.9066   -0.8316   -3.1125 F   0  0  0  0  0  0  0  0  0  0  0  0
   -2.1018    0.0037   -5.5692 F   0  0  0  0  0  0  0  0  0  0  0  0
   -0.6907    3.0093   -4.1287 F   0  0  0  0  0  0  0  0  0  0  0  0
    1.9508    2.5052   -3.6834 F   0  0  0  0  0  0  0  0  0  0  0  0
    2.5847    3.9707   -7.2169 F   0  0  0  0  0  0  0  0  0  0  0  0
    3.8811    1.9670   -5.9245 F   0  0  0  0  0  0  0  0  0  0  0  0
    2.9721    2.6847  -10.3069 F   0  0  0  0  0  0  0  0  0  0  0  0
    5.1629    1.6083   -9.1204 F   0  0  0  0  0  0  0  0  0  0  0  0
   -2.3578   -3.9705   -4.2001 F   0  0  0  0  0  0  0  0  0  0  0  0
   -1.2920   -3.1116   -6.5446 F   0  0  0  0  0  0  0  0  0  0  0  0
    5.5058   -1.9933  -10.3153 F   0  0  0  0  0  0  0  0  0  0  0  0
    3.5545   -3.5426   -9.2320 F   0  0  0  0  0  0  0  0  0  0  0  0
    6.5842   -2.6514   -7.0452 F   0  0  0  0  0  0  0  0  0  0  0  0
    5.7400   -0.0727   -7.1011 F   0  0  0  0  0  0  0  0  0  0  0  0
    3.1200   -0.7375   -4.8728 F   0  0  0  0  0  0  0  0  0  0  0  0
    4.7990   -2.7614   -4.2014 F   0  0  0  0  0  0  0  0  0  0  0  0
    0.6657   -0.1962   -6.7531 F   0  0  0  0  0  0  0  0  0  0  0  0
   -0.4698    2.1789   -7.4185 F   0  0  0  0  0  0  0  0  0  0  0  0
    1.4370   -2.7822   -2.9274 F   0  0  0  0  0  0  0  0  0  0  0  0
    0.7061   -5.2695   -3.7388 F   0  0  0  0  0  0  0  0  0  0  0  0
    1.2590   -0.8344   -9.1494 F   0  0  0  0  0  0  0  0  0  0  0  0
    2.7005   -0.4803  -11.4007 F   0  0  0  0  0  0  0  0  0  0  0  0
    3.0626   -5.1091   -6.1285 F   0  0  0  0  0  0  0  0  0  0  0  0
    1.5356   -3.2658   -7.4126 F   0  0  0  0  0  0  0  0  0  0  0  0
  1  2  1  0
  1  3  1  0
  2  7  1  0
  2 14  1  0
  2 15  1  0
  3  4  1  0
  3 16  1  0
  3 17  1  0
  4  5  1  0
  4 30  1  0
  4 31  1  0
  5  8  1  0
  5 18  1  0
  5 19  1  0
  6  7  1  0
  6  9  1  0
  6 32  1  0
  6 33  1  0
  7 22  1  0
  7 23  1  0
  8 10  1  0
  8 20  1  0
  8 21  1  0
  9 11  1  0
  9 36  1  0
  9 37  1  0
 10 12  1  0
 10 34  1  0
 10 35  1  0
 11 13  1  0
 11 28  1  0
 11 29  1  0
 12 13  1  0
 12 24  1  0
 12 25  1  0
 13 26  1  0
 13 27  1  0
M  CHG  1   1   1
M  RAD  1   1   2
M  END
$$$$

     RDKit          3D

 37 37  0  0  0  0  0  0  0  0999 V2000
    0.0568    0.0705   -3.2761 S   0  0  0  0  0  2  0  0  0  0  0  0
    1.1237   -1.7400   -3.8235 Si  0  0  0  0  0  4  0  0  0  0  0  0
    1.0007    1.7573   -4.1541 Si  0  0  0  0  0  4  0  0  0  0  0  0
   -0.4125    3.3915   -4.6381 Si  0  0  0  0  0  4  0  0  0  0  0  0
   -2.1088    2.7527   -5.8894 Si  0  0  0  0  0  4  0  0  0  0  0  0
    0.8995   -4.2194   -6.5549 Si  0  0  0  0  0  4  0  0  0  0  0  0
    0.8267   -2.0547   -5.9974 Si  0  0  0  0  0  4  0  0  0  0  0  0
   -2.2182    3.8733   -7.8157 Si  0  0  0  0  0  4  0  0  0  0  0  0
   -0.3452   -4.4370   -8.4279 Si  0  0  0  0  0  4  0  0  0  0  0  0
   -2.1410    2.4765   -9.5674 Si  0  0  0  0  0  4  0  0  0  0  0  0
    0.0410   -2.6794   -9.7337 Si  0  0  0  0  0  4  0  0  0  0  0  0
   -0.6614    0.8631   -9.2725 Si  0  0  0  0  0  4  0  0  0  0  0  0
   -1.5480   -1.1619   -9.6589 Si  0  0  0  0  0  4  0  0  0  0  0  0
    0.6152   -3.0409   -2.9191 F   0  0  0  0  0  0  0  0  0  0  0  0
    2.7667   -1.4667   -3.5068 F   0  0  0  0  0  0  0  0  0  0  0  0
    2.1034    2.3774   -3.0062 F   0  0  0  0  0  0  0  0  0  0  0  0
    1.9500    1.3216   -5.4994 F   0  0  0  0  0  0  0  0  0  0  0  0
   -3.5497    3.0801   -5.0316 F   0  0  0  0  0  0  0  0  0  0  0  0
   -2.1175    1.1232   -6.2357 F   0  0  0  0  0  0  0  0  0  0  0  0
   -0.9641    5.0247   -7.9217 F   0  0  0  0  0  0  0  0  0  0  0  0
   -3.6628    4.7380   -7.9516 F   0  0  0  0  0  0  0  0  0  0  0  0
   -0.7682   -1.5541   -6.3425 F   0  0  0  0  0  0  0  0  0  0  0  0
    1.9170   -1.1661   -6.9085 F   0  0  0  0  0  0  0  0  0  0  0  0
   -0.0016    0.9798   -7.7537 F   0  0  0  0  0  0  0  0  0  0  0  0
    0.6021    1.0521  -10.4038 F   0  0  0  0  0  0  0  0  0  0  0  0
   -2.2744   -1.0723  -11.2021 F   0  0  0  0  0  0  0  0  0  0  0  0
   -2.7721   -1.5172   -8.5747 F   0  0  0  0  0  0  0  0  0  0  0  0
    0.2637   -3.2706  -11.3197 F   0  0  0  0  0  0  0  0  0  0  0  0
    1.5351   -1.9948   -9.2897 F   0  0  0  0  0  0  0  0  0  0  0  0
   -0.9367    4.0783   -3.1675 F   0  0  0  0  0  0  0  0  0  0  0  0
    0.4568    4.6061   -5.4360 F   0  0  0  0  0  0  0  0  0  0  0  0
    2.4793   -4.6412   -6.9447 F   0  0  0  0  0  0  0  0  0  0  0  0
    0.2744   -5.1667   -5.3167 F   0  0  0  0  0  0  0  0  0  0  0  0
   -1.7201    3.4255  -10.9218 F   0  0  0  0  0  0  0  0  0  0  0  0
   -3.6736    1.8402   -9.8991 F   0  0  0  0  0  0  0  0  0  0  0  0
    0.0875   -5.8845   -9.1795 F   0  0  0  0  0  0  0  0  0  0  0  0
   -1.9628   -4.5058   -7.9582 F   0  0  0  0  0  0  0  0  0  0  0  0
  1  2  1  0
  1  3  1  0
  2  7  1  0
  2 14  1  0
  2 15  1  0
  3  4  1  0
  3 16  1  0
  3 17  1  0
  4  5  1  0
  4 30  1  0
  4 31  1  0
  5  8  1  0
  5 18  1  0
  5 19  1  0
  6  7  1  0
  6  9  1  0
  6 32  1  0
  6 33  1  0
  7 22  1  0
  7 23  1  0
  8 10  1  0
  8 20  1  0
  8 21  1  0
  9 11  1  0
  9 36  1  0
  9 37  1  0
 10 12  1  0
 10 34  1  0
 10 35  1  0
 11 13  1  0
 11 28  1  0
 11 29  1  0
 12 13  1  0
 12 24  1  0
 12 25  1  0
 13 26  1  0
 13 27  1  0
M  CHG  1   1   1
M  RAD  1   1   2
M  END
$$$$
