
     RDKit          3D

 37 37  0  0  0  0  0  0  0  0999 V2000
    1.3860   -0.7230    3.0971 S   0  0  0  0  0  2  0  0  0  0  0  0
    2.9850   -2.0240    3.7174 Si  0  0  0  0  0  4  0  0  0  0  0  0
    1.5969    1.2198    4.0134 Si  0  0  0  0  0  4  0  0  0  0  0  0
    1.1484    1.0626    6.1968 Si  0  0  0  0  0  4  0  0  0  0  0  0
    2.6316    2.2653    7.3961 Si  0  0  0  0  0  4  0  0  0  0  0  0
    3.5942   -4.1627    6.6606 Si  0  0  0  0  0  4  0  0  0  0  0  0
    2.2341   -3.7118    4.9365 Si  0  0  0  0  0  4  0  0  0  0  0  0
    4.4452    1.0431    7.7235 Si  0  0  0  0  0  4  0  0  0  0  0  0
    2.5416   -3.8973    8.5846 Si  0  0  0  0  0  4  0  0  0  0  0  0
    5.2779    1.2646    9.7631 Si  0  0  0  0  0  4  0  0  0  0  0  0
    3.7496   -2.8016   10.0928 Si  0  0  0  0  0  4  0  0  0  0  0  0
    3.8685    0.6696   11.3435 Si  0  0  0  0  0  4  0  0  0  0  0  0
    2.5906   -1.0463   10.7791 Si  0  0  0  0  0  4  0  0  0  0  0  0
    4.1608   -1.1395    4.5064 F   0  0  0  0  0  0  0  0  0  0  0  0
    3.6921   -2.6322    2.2884 F   0  0  0  0  0  0  0  0  0  0  0  0
    3.0976    1.8844    3.7205 F   0  0  0  0  0  0  0  0  0  0  0  0
    0.4219    2.2204    3.3066 F   0  0  0  0  0  0  0  0  0  0  0  0
    1.9606    2.8237    8.8135 F   0  0  0  0  0  0  0  0  0  0  0  0
    3.0303    3.6126    6.4289 F   0  0  0  0  0  0  0  0  0  0  0  0
    5.6537    1.4916    6.6166 F   0  0  0  0  0  0  0  0  0  0  0  0
    4.0837   -0.5600    7.4490 F   0  0  0  0  0  0  0  0  0  0  0  0
    0.6954   -3.3483    5.5475 F   0  0  0  0  0  0  0  0  0  0  0  0
    2.0520   -5.0590    3.9354 F   0  0  0  0  0  0  0  0  0  0  0  0
    2.8625    1.9759   11.7029 F   0  0  0  0  0  0  0  0  0  0  0  0
    4.7247    0.3141   12.7701 F   0  0  0  0  0  0  0  0  0  0  0  0
    1.4706   -0.5208    9.6324 F   0  0  0  0  0  0  0  0  0  0  0  0
    1.6891   -1.4913   12.1575 F   0  0  0  0  0  0  0  0  0  0  0  0
    5.2744   -2.3860    9.5100 F   0  0  0  0  0  0  0  0  0  0  0  0
    4.0341   -3.7927   11.4557 F   0  0  0  0  0  0  0  0  0  0  0  0
    1.4012   -0.5663    6.6336 F   0  0  0  0  0  0  0  0  0  0  0  0
   -0.4188    1.4907    6.5574 F   0  0  0  0  0  0  0  0  0  0  0  0
    5.0192   -3.2700    6.5657 F   0  0  0  0  0  0  0  0  0  0  0  0
    4.0473   -5.8039    6.5337 F   0  0  0  0  0  0  0  0  0  0  0  0
    6.6686    0.3331    9.8805 F   0  0  0  0  0  0  0  0  0  0  0  0
    5.7466    2.8804   10.0464 F   0  0  0  0  0  0  0  0  0  0  0  0
    2.0945   -5.4090    9.2391 F   0  0  0  0  0  0  0  0  0  0  0  0
    1.0701   -3.0921    8.2649 F   0  0  0  0  0  0  0  0  0  0  0  0
  1  2  1  0
  1  3  1  0
  2  7  1  0
  2 14  1  0
  2 15  1  0
  3  4  1  0
  3 16  1  0
  3 17  1  0
  4  5  1  0
  4 30  1  0
  4 31  1  0
  5  8  1  0
  5 18  1  0
  5 19  1  0
  6  7  1  0
  6  9  1  0
  6 32  1  0
  6 33  1  0
  7 22  1  0
  7 23  1  0
  8 10  1  0
  8 20  1  0
  8 21  1  0
  9 11  1  0
  9 36  1  0
  9 37  1  0
 10 12  1  0
 10 34  1  0
 10 35  1  0
 11 13  1  0
 11 28  1  0
 11 29  1  0
 12 13  1  0
 12 24  1  0
 12 25  1  0
 13 26  1  0
 13 27  1  0
M  CHG  1   1   1
M  RAD  1   1   2
M  END
$$$$

     RDKit          3D

 37 37  0  0  0  0  0  0  0  0999 V2000
    1.3860   -0.7230    3.0971 S   0  0  0  0  0  2  0  0  0  0  0  0
    1.4812   -2.4124    4.4278 Si  0  0  0  0  0  4  0  0  0  0  0  0
    3.3349    0.1800    2.8851 Si  0  0  0  0  0  4  0  0  0  0  0  0
    3.8851    1.2123    4.7889 Si  0  0  0  0  0  4  0  0  0  0  0  0
    6.0455    0.8212    5.3034 Si  0  0  0  0  0  4  0  0  0  0  0  0
    1.3937   -2.8361    8.0912 Si  0  0  0  0  0  4  0  0  0  0  0  0
    0.3263   -2.0540    6.2816 Si  0  0  0  0  0  4  0  0  0  0  0  0
    6.1895   -1.1154    6.3610 Si  0  0  0  0  0  4  0  0  0  0  0  0
    1.8457   -1.2013    9.5068 Si  0  0  0  0  0  4  0  0  0  0  0  0
    7.6230   -1.0722    8.0480 Si  0  0  0  0  0  4  0  0  0  0  0  0
    3.9114   -1.2995   10.3177 Si  0  0  0  0  0  4  0  0  0  0  0  0
    7.1023    0.4080    9.5894 Si  0  0  0  0  0  4  0  0  0  0  0  0
    4.9218    0.6236    9.8981 Si  0  0  0  0  0  4  0  0  0  0  0  0
    3.0753   -2.8030    4.7338 F   0  0  0  0  0  0  0  0  0  0  0  0
    0.7975   -3.7286    3.5839 F   0  0  0  0  0  0  0  0  0  0  0  0
    4.4848   -0.9302    2.4104 F   0  0  0  0  0  0  0  0  0  0  0  0
    3.1953    1.3575    1.6705 F   0  0  0  0  0  0  0  0  0  0  0  0
    6.7053    2.0827    6.1662 F   0  0  0  0  0  0  0  0  0  0  0  0
    6.8669    0.7087    3.8126 F   0  0  0  0  0  0  0  0  0  0  0  0
    6.6917   -2.3285    5.2826 F   0  0  0  0  0  0  0  0  0  0  0  0
    4.6834   -1.5430    6.9309 F   0  0  0  0  0  0  0  0  0  0  0  0
    0.0625   -0.3927    6.4902 F   0  0  0  0  0  0  0  0  0  0  0  0
   -1.1941   -2.7688    6.1145 F   0  0  0  0  0  0  0  0  0  0  0  0
    7.7184    1.9124    9.1369 F   0  0  0  0  0  0  0  0  0  0  0  0
    7.8607   -0.0019   11.0562 F   0  0  0  0  0  0  0  0  0  0  0  0
    4.2714    1.4188    8.5602 F   0  0  0  0  0  0  0  0  0  0  0  0
    4.6915    1.6642   11.2302 F   0  0  0  0  0  0  0  0  0  0  0  0
    4.7666   -2.6253    9.7275 F   0  0  0  0  0  0  0  0  0  0  0  0
    3.8716   -1.4980   12.0147 F   0  0  0  0  0  0  0  0  0  0  0  0
    2.9673    0.4813    6.0264 F   0  0  0  0  0  0  0  0  0  0  0  0
    3.5523    2.8424    4.7487 F   0  0  0  0  0  0  0  0  0  0  0  0
    2.7580   -3.7247    7.6607 F   0  0  0  0  0  0  0  0  0  0  0  0
    0.3374   -3.9271    8.8714 F   0  0  0  0  0  0  0  0  0  0  0  0
    7.6828   -2.5986    8.7424 F   0  0  0  0  0  0  0  0  0  0  0  0
    9.1972   -0.7282    7.4877 F   0  0  0  0  0  0  0  0  0  0  0  0
    0.7469   -1.2158   10.8129 F   0  0  0  0  0  0  0  0  0  0  0  0
    1.5660    0.2771    8.6994 F   0  0  0  0  0  0  0  0  0  0  0  0
  1  2  1  0
  1  3  1  0
  2  7  1  0
  2 14  1  0
  2 15  1  0
  3  4  1  0
  3 16  1  0
  3 17  1  0
  4  5  1  0
  4 30  1  0
  4 31  1  0
  5  8  1  0
  5 18  1  0
  5 19  1  0
  6  7  1  0
  6  9  1  0
  6 32  1  0
  6 33  1  0
  7 22  1  0
  7 23  1  0
  8 10  1  0
  8 20  1  0
  8 21  1  0
  9 11  1  0
  9 36  1  0
  9 37  1  0
 10 12  1  0
 10 34  1  0
 10 35  1  0
 11 13  1  0
 11 28  1  0
 11 29  1  0
 12 13  1  0
 12 24  1  0
 12 25  1  0
 13 26  1  0
 13 27  1  0
M  CHG  1   1   1
M  RAD  1   1   2
M  END
$$$$

     RDKit          3D

 37 37  0  0  0  0  0  0  0  0999 V2000
    1.3860   -0.7230    3.0971 S   0  0  0  0  0  2  0  0  0  0  0  0
    0.4239    0.7093    4.3426 Si  0  0  0  0  0  4  0  0  0  0  0  0
    3.3714   -1.1485    3.6829 Si  0  0  0  0  0  4  0  0  0  0  0  0
    3.5472   -3.1366    4.7064 Si  0  0  0  0  0  4  0  0  0  0  0  0
    3.0164   -2.9403    6.8733 Si  0  0  0  0  0  4  0  0  0  0  0  0
    0.9885    3.9393    6.0325 Si  0  0  0  0  0  4  0  0  0  0  0  0
    1.8941    2.0150    5.3823 Si  0  0  0  0  0  4  0  0  0  0  0  0
    4.7843   -2.3278    8.0862 Si  0  0  0  0  0  4  0  0  0  0  0  0
    2.5778    5.3630    6.6131 Si  0  0  0  0  0  4  0  0  0  0  0  0
    4.2994   -0.5829    9.4038 Si  0  0  0  0  0  4  0  0  0  0  0  0
    4.4731    4.3471    7.1723 Si  0  0  0  0  0  4  0  0  0  0  0  0
    5.4565    1.1840    8.6907 Si  0  0  0  0  0  4  0  0  0  0  0  0
    4.2665    3.0797    8.9653 Si  0  0  0  0  0  4  0  0  0  0  0  0
   -0.4263   -0.1489    5.5473 F   0  0  0  0  0  0  0  0  0  0  0  0
   -0.7061    1.5777    3.4719 F   0  0  0  0  0  0  0  0  0  0  0  0
    4.0533   -0.0005    4.6733 F   0  0  0  0  0  0  0  0  0  0  0  0
    4.3311   -1.2449    2.2774 F   0  0  0  0  0  0  0  0  0  0  0  0
    1.7231   -1.8818    7.0831 F   0  0  0  0  0  0  0  0  0  0  0  0
    2.5154   -4.4829    7.3948 F   0  0  0  0  0  0  0  0  0  0  0  0
    6.0325   -1.9451    7.0129 F   0  0  0  0  0  0  0  0  0  0  0  0
    5.3471   -3.6170    9.0403 F   0  0  0  0  0  0  0  0  0  0  0  0
    3.2127    2.3885    4.3768 F   0  0  0  0  0  0  0  0  0  0  0  0
    2.4100    1.1963    6.7730 F   0  0  0  0  0  0  0  0  0  0  0  0
    6.9576    1.2994    9.4071 F   0  0  0  0  0  0  0  0  0  0  0  0
    5.6848    0.9823    7.0113 F   0  0  0  0  0  0  0  0  0  0  0  0
    2.6792    2.7429    9.3656 F   0  0  0  0  0  0  0  0  0  0  0  0
    4.9600    3.8747   10.3052 F   0  0  0  0  0  0  0  0  0  0  0  0
    5.6355    5.5454    7.4576 F   0  0  0  0  0  0  0  0  0  0  0  0
    5.0037    3.4557    5.8450 F   0  0  0  0  0  0  0  0  0  0  0  0
    2.4840   -4.1971    3.9428 F   0  0  0  0  0  0  0  0  0  0  0  0
    5.0944   -3.7560    4.5887 F   0  0  0  0  0  0  0  0  0  0  0  0
    0.0868    4.5906    4.7483 F   0  0  0  0  0  0  0  0  0  0  0  0
   -0.0750    3.6800    7.3007 F   0  0  0  0  0  0  0  0  0  0  0  0
    2.6404   -0.2674    9.4151 F   0  0  0  0  0  0  0  0  0  0  0  0
    4.7588   -0.9207   10.9893 F   0  0  0  0  0  0  0  0  0  0  0  0
    2.0481    6.4082    7.8304 F   0  0  0  0  0  0  0  0  0  0  0  0
    2.9161    6.3436    5.2597 F   0  0  0  0  0  0  0  0  0  0  0  0
  1  2  1  0
  1  3  1  0
  2  7  1  0
  2 14  1  0
  2 15  1  0
  3  4  1  0
  3 16  1  0
  3 17  1  0
  4  5  1  0
  4 30  1  0
  4 31  1  0
  5  8  1  0
  5 18  1  0
  5 19  1  0
  6  7  1  0
  6  9  1  0
  6 32  1  0
  6 33  1  0
  7 22  1  0
  7 23  1  0
  8 10  1  0
  8 20  1  0
  8 21  1  0
  9 11  1  0
  9 36  1  0
  9 37  1  0
 10 12  1  0
 10 34  1  0
 10 35  1  0
 11 13  1  0
 11 28  1  0
 11 29  1  0
 12 13  1  0
 12 24  1  0
 12 25  1  0
 13 26  1  0
 13 27  1  0
M  CHG  1   1   1
M  RAD  1   1   2
M  END
$$$$

     RDKit          3D

 37 37  0  0  0  0  0  0  0  0999 V2000
    1.3860   -0.7230    3.0971 S   0  0  0  0  0  2  0  0  0  0  0  0
    2.3486    1.0281    3.7850 Si  0  0  0  0  0  4  0  0  0  0  0  0
    2.4450   -2.5065    3.4602 Si  0  0  0  0  0  4  0  0  0  0  0  0
    1.7578   -3.5311    5.3474 Si  0  0  0  0  0  4  0  0  0  0  0  0
    3.2149   -5.0424    6.0222 Si  0  0  0  0  0  4  0  0  0  0  0  0
    5.4329    2.9535    4.0026 Si  0  0  0  0  0  4  0  0  0  0  0  0
    4.4270    1.2362    3.0429 Si  0  0  0  0  0  4  0  0  0  0  0  0
    4.8430   -4.2226    7.2527 Si  0  0  0  0  0  4  0  0  0  0  0  0
    6.3400    2.4488    5.9545 Si  0  0  0  0  0  4  0  0  0  0  0  0
    4.1876   -2.6880    8.6911 Si  0  0  0  0  0  4  0  0  0  0  0  0
    5.4801    0.6418    6.8767 Si  0  0  0  0  0  4  0  0  0  0  0  0
    6.0052   -1.6953    9.5759 Si  0  0  0  0  0  4  0  0  0  0  0  0
    7.0371   -0.5684    7.9591 Si  0  0  0  0  0  4  0  0  0  0  0  0
    1.4690    2.3606    3.1728 F   0  0  0  0  0  0  0  0  0  0  0  0
    2.2680    1.1878    5.4797 F   0  0  0  0  0  0  0  0  0  0  0  0
    2.1117   -3.5980    2.1909 F   0  0  0  0  0  0  0  0  0  0  0  0
    4.0932   -2.3322    3.5469 F   0  0  0  0  0  0  0  0  0  0  0  0
    2.4010   -6.2330    6.8947 F   0  0  0  0  0  0  0  0  0  0  0  0
    3.9003   -5.8152    4.6694 F   0  0  0  0  0  0  0  0  0  0  0  0
    5.5441   -5.5064    8.1330 F   0  0  0  0  0  0  0  0  0  0  0  0
    6.0605   -3.6095    6.2479 F   0  0  0  0  0  0  0  0  0  0  0  0
    5.3443   -0.1308    3.2454 F   0  0  0  0  0  0  0  0  0  0  0  0
    4.3415    1.5530    1.3672 F   0  0  0  0  0  0  0  0  0  0  0  0
    7.0494   -2.8498   10.2335 F   0  0  0  0  0  0  0  0  0  0  0  0
    5.4798   -0.6102   10.7325 F   0  0  0  0  0  0  0  0  0  0  0  0
    8.2813    0.3803    8.5177 F   0  0  0  0  0  0  0  0  0  0  0  0
    7.6761   -1.7067    6.8739 F   0  0  0  0  0  0  0  0  0  0  0  0
    4.2315    1.0675    7.9481 F   0  0  0  0  0  0  0  0  0  0  0  0
    4.8050   -0.3946    5.7237 F   0  0  0  0  0  0  0  0  0  0  0  0
    1.3726   -2.4184    6.5314 F   0  0  0  0  0  0  0  0  0  0  0  0
    0.3125   -4.3418    4.9368 F   0  0  0  0  0  0  0  0  0  0  0  0
    6.6816    3.4985    2.9755 F   0  0  0  0  0  0  0  0  0  0  0  0
    4.3317    4.2295    4.1200 F   0  0  0  0  0  0  0  0  0  0  0  0
    3.3965   -3.4610    9.9893 F   0  0  0  0  0  0  0  0  0  0  0  0
    3.2272   -1.5048    8.0254 F   0  0  0  0  0  0  0  0  0  0  0  0
    6.0657    3.7618    7.0101 F   0  0  0  0  0  0  0  0  0  0  0  0
    8.0215    2.2739    5.8580 F   0  0  0  0  0  0  0  0  0  0  0  0
  1  2  1  0
  1  3  1  0
  2  7  1  0
  2 14  1  0
  2 15  1  0
  3  4  1  0
  3 16  1  0
  3 17  1  0
  4  5  1  0
  4 30  1  0
  4 31  1  0
  5  8  1  0
  5 18  1  0
  5 19  1  0
  6  7  1  0
  6  9  1  0
  6 32  1  0
  6 33  1  0
  7 22  1  0
  7 23  1  0
  8 10  1  0
  8 20  1  0
  8 21  1  0
  9 11  1  0
  9 36  1  0
  9 37  1  0
 10 12  1  0
 10 34  1  0
 10 35  1  0
 11 13  1  0
 11 28  1  0
 11 29  1  0
 12 13  1  0
 12 24  1  0
 12 25  1  0
 13 26  1  0
 13 27  1  0
M  CHG  1   1   1
M  RAD  1   1   2
M  END
$$$$

     RDKit          3D

 37 37  0  0  0  0  0  0  0  0999 V2000
    1.3860   -0.7230    3.0971 S   0  0  0  0  0  2  0  0  0  0  0  0
    0.7594    0.9722    4.2204 Si  0  0  0  0  0  4  0  0  0  0  0  0
    3.2863   -1.4528    3.6649 Si  0  0  0  0  0  4  0  0  0  0  0  0
    3.1458   -3.3351    4.8765 Si  0  0  0  0  0  4  0  0  0  0  0  0
    2.7615   -2.8433    7.0273 Si  0  0  0  0  0  4  0  0  0  0  0  0
    1.9798    4.1845    5.5619 Si  0  0  0  0  0  4  0  0  0  0  0  0
    2.4894    2.0737    5.0815 Si  0  0  0  0  0  4  0  0  0  0  0  0
    4.6661   -2.4590    8.1213 Si  0  0  0  0  0  4  0  0  0  0  0  0
    3.8267    5.3367    5.9512 Si  0  0  0  0  0  4  0  0  0  0  0  0
    4.5684   -0.5397    9.2713 Si  0  0  0  0  0  4  0  0  0  0  0  0
    5.5300    4.0436    6.5540 Si  0  0  0  0  0  4  0  0  0  0  0  0
    5.9925    0.9081    8.3520 Si  0  0  0  0  0  4  0  0  0  0  0  0
    5.1808    3.0087    8.4700 Si  0  0  0  0  0  4  0  0  0  0  0  0
   -0.1751    0.4022    5.5290 F   0  0  0  0  0  0  0  0  0  0  0  0
   -0.2335    1.9502    3.3004 F   0  0  0  0  0  0  0  0  0  0  0  0
    4.2110   -0.3640    4.5154 F   0  0  0  0  0  0  0  0  0  0  0  0
    4.1456   -1.8556    2.2489 F   0  0  0  0  0  0  0  0  0  0  0  0
    1.6932   -1.5486    7.1676 F   0  0  0  0  0  0  0  0  0  0  0  0
    2.0136   -4.2110    7.7147 F   0  0  0  0  0  0  0  0  0  0  0  0
    5.9113   -2.4157    6.9795 F   0  0  0  0  0  0  0  0  0  0  0  0
    5.0294   -3.7358    9.1829 F   0  0  0  0  0  0  0  0  0  0  0  0
    3.8053    2.1013    4.0060 F   0  0  0  0  0  0  0  0  0  0  0  0
    2.9126    1.3065    6.5315 F   0  0  0  0  0  0  0  0  0  0  0  0
    7.5214    0.8094    9.0096 F   0  0  0  0  0  0  0  0  0  0  0  0
    6.1015    0.5124    6.6953 F   0  0  0  0  0  0  0  0  0  0  0  0
    3.5792    3.0106    8.9477 F   0  0  0  0  0  0  0  0  0  0  0  0
    6.0691    3.7824    9.7031 F   0  0  0  0  0  0  0  0  0  0  0  0
    6.9027    5.0270    6.6844 F   0  0  0  0  0  0  0  0  0  0  0  0
    5.8271    2.9499    5.3077 F   0  0  0  0  0  0  0  0  0  0  0  0
    1.8731   -4.2465    4.2538 F   0  0  0  0  0  0  0  0  0  0  0  0
    4.5475   -4.2387    4.7766 F   0  0  0  0  0  0  0  0  0  0  0  0
    1.1523    4.8694    4.2457 F   0  0  0  0  0  0  0  0  0  0  0  0
    0.9474    4.2458    6.8800 F   0  0  0  0  0  0  0  0  0  0  0  0
    2.9967    0.0775    9.2989 F   0  0  0  0  0  0  0  0  0  0  0  0
    5.0325   -0.8079   10.8687 F   0  0  0  0  0  0  0  0  0  0  0  0
    3.5532    6.5705    7.0726 F   0  0  0  0  0  0  0  0  0  0  0  0
    4.2737    6.1075    4.4972 F   0  0  0  0  0  0  0  0  0  0  0  0
  1  2  1  0
  1  3  1  0
  2  7  1  0
  2 14  1  0
  2 15  1  0
  3  4  1  0
  3 16  1  0
  3 17  1  0
  4  5  1  0
  4 30  1  0
  4 31  1  0
  5  8  1  0
  5 18  1  0
  5 19  1  0
  6  7  1  0
  6  9  1  0
  6 32  1  0
  6 33  1  0
  7 22  1  0
  7 23  1  0
  8 10  1  0
  8 20  1  0
  8 21  1  0
  9 11  1  0
  9 36  1  0
  9 37  1  0
 10 12  1  0
 10 34  1  0
 10 35  1  0
 11 13  1  0
 11 28  1  0
 11 29  1  0
 12 13  1  0
 12 24  1  0
 12 25  1  0
 13 26  1  0
 13 27  1  0
M  CHG  1   1   1
M  RAD  1   1   2
M  END
$$$$

     RDKit          3D

 37 37  0  0  0  0  0  0  0  0999 V2000
    1.3860   -0.7230    3.0971 S   0  0  0  0  0  2  0  0  0  0  0  0
    3.1202   -1.8571    3.6808 Si  0  0  0  0  0  4  0  0  0  0  0  0
    1.3350    1.1660    4.1400 Si  0  0  0  0  0  4  0  0  0  0  0  0
    0.8628    0.8109    6.2950 Si  0  0  0  0  0  4  0  0  0  0  0  0
    2.1598    2.1037    7.6108 Si  0  0  0  0  0  4  0  0  0  0  0  0
    3.9265   -4.0956    6.4998 Si  0  0  0  0  0  4  0  0  0  0  0  0
    2.5581   -3.7010    4.7684 Si  0  0  0  0  0  4  0  0  0  0  0  0
    4.1033    1.0933    7.9136 Si  0  0  0  0  0  4  0  0  0  0  0  0
    2.8081   -4.0887    8.4049 Si  0  0  0  0  0  4  0  0  0  0  0  0
    4.8584    1.2793    9.9867 Si  0  0  0  0  0  4  0  0  0  0  0  0
    3.8387   -2.9560   10.0142 Si  0  0  0  0  0  4  0  0  0  0  0  0
    3.5000    0.4132   11.4843 Si  0  0  0  0  0  4  0  0  0  0  0  0
    2.4568   -1.4048   10.7754 Si  0  0  0  0  0  4  0  0  0  0  0  0
    4.1602   -0.8898    4.5582 F   0  0  0  0  0  0  0  0  0  0  0  0
    3.9276   -2.2784    2.2377 F   0  0  0  0  0  0  0  0  0  0  0  0
    2.7479    2.0270    3.9338 F   0  0  0  0  0  0  0  0  0  0  0  0
    0.0606    2.0602    3.4635 F   0  0  0  0  0  0  0  0  0  0  0  0
    1.3946    2.4808    9.0403 F   0  0  0  0  0  0  0  0  0  0  0  0
    2.4091    3.5507    6.7427 F   0  0  0  0  0  0  0  0  0  0  0  0
    5.2703    1.7584    6.8732 F   0  0  0  0  0  0  0  0  0  0  0  0
    3.9490   -0.5202    7.5280 F   0  0  0  0  0  0  0  0  0  0  0  0
    0.9736   -3.5695    5.3556 F   0  0  0  0  0  0  0  0  0  0  0  0
    2.5658   -4.9911    3.6793 F   0  0  0  0  0  0  0  0  0  0  0  0
    2.3326    1.5601   11.8957 F   0  0  0  0  0  0  0  0  0  0  0  0
    4.3630    0.0712   12.9102 F   0  0  0  0  0  0  0  0  0  0  0  0
    1.3051   -0.9454    9.6317 F   0  0  0  0  0  0  0  0  0  0  0  0
    1.5881   -2.0470   12.0959 F   0  0  0  0  0  0  0  0  0  0  0  0
    5.3123   -2.3196    9.5037 F   0  0  0  0  0  0  0  0  0  0  0  0
    4.2145   -3.9930   11.3196 F   0  0  0  0  0  0  0  0  0  0  0  0
    1.3061   -0.8002    6.6353 F   0  0  0  0  0  0  0  0  0  0  0  0
   -0.7526    1.0195    6.6357 F   0  0  0  0  0  0  0  0  0  0  0  0
    5.2316   -3.0311    6.5033 F   0  0  0  0  0  0  0  0  0  0  0  0
    4.5819   -5.6571    6.2830 F   0  0  0  0  0  0  0  0  0  0  0  0
    6.3509    0.5190   10.0859 F   0  0  0  0  0  0  0  0  0  0  0  0
    5.1172    2.9179   10.3850 F   0  0  0  0  0  0  0  0  0  0  0  0
    2.5378   -5.6838    8.9493 F   0  0  0  0  0  0  0  0  0  0  0  0
    1.2554   -3.4500    8.0936 F   0  0  0  0  0  0  0  0  0  0  0  0
  1  2  1  0
  1  3  1  0
  2  7  1  0
  2 14  1  0
  2 15  1  0
  3  4  1  0
  3 16  1  0
  3 17  1  0
  4  5  1  0
  4 30  1  0
  4 31  1  0
  5  8  1  0
  5 18  1  0
  5 19  1  0
  6  7  1  0
  6  9  1  0
  6 32  1  0
  6 33  1  0
  7 22  1  0
  7 23  1  0
  8 10  1  0
  8 20  1  0
  8 21  1  0
  9 11  1  0
  9 36  1  0
  9 37  1  0
 10 12  1  0
 10 34  1  0
 10 35  1  0
 11 13  1  0
 11 28  1  0
 11 29  1  0
 12 13  1  0
 12 24  1  0
 12 25  1  0
 13 26  1  0
 13 27  1  0
M  CHG  1   1   1
M  RAD  1   1   2
M  END
$$$$
