
     RDKit          3D

 37 37  0  0  0  0  0  0  0  0999 V2000
    0.2794    0.8001   -2.9882 S   0  0  0  0  0  2  0  0  0  0  0  0
   -0.2895    2.4104   -4.2656 Si  0  0  0  0  0  4  0  0  0  0  0  0
    2.4069    0.4845   -3.0253 Si  0  0  0  0  0  4  0  0  0  0  0  0
    2.8085   -1.4228   -4.1186 Si  0  0  0  0  0  4  0  0  0  0  0  0
    2.9263   -1.0434   -6.3315 Si  0  0  0  0  0  4  0  0  0  0  0  0
   -3.3201    0.3145   -4.4103 Si  0  0  0  0  0  4  0  0  0  0  0  0
   -2.4109    2.3099   -4.8753 Si  0  0  0  0  0  4  0  0  0  0  0  0
    0.8981   -1.5371   -7.1718 Si  0  0  0  0  0  4  0  0  0  0  0  0
   -4.3195   -0.5161   -6.2329 Si  0  0  0  0  0  4  0  0  0  0  0  0
    0.5814   -0.5965   -9.1459 Si  0  0  0  0  0  4  0  0  0  0  0  0
   -3.4112   -2.4154   -6.8855 Si  0  0  0  0  0  4  0  0  0  0  0  0
   -1.6230   -0.5891   -9.5896 Si  0  0  0  0  0  4  0  0  0  0  0  0
   -2.6327   -2.4087   -8.9320 Si  0  0  0  0  0  4  0  0  0  0  0  0
    0.7504    2.4307   -5.6145 F   0  0  0  0  0  0  0  0  0  0  0  0
   -0.0395    3.8960   -3.4660 F   0  0  0  0  0  0  0  0  0  0  0  0
    3.1951    1.7407   -3.8175 F   0  0  0  0  0  0  0  0  0  0  0  0
    2.9286    0.3216   -1.4345 F   0  0  0  0  0  0  0  0  0  0  0  0
    4.1177   -1.9905   -7.0036 F   0  0  0  0  0  0  0  0  0  0  0  0
    3.2355    0.5974   -6.5769 F   0  0  0  0  0  0  0  0  0  0  0  0
   -0.1930   -0.7836   -6.1016 F   0  0  0  0  0  0  0  0  0  0  0  0
    0.6634   -3.1897   -7.2351 F   0  0  0  0  0  0  0  0  0  0  0  0
   -2.4885    2.5439   -6.5541 F   0  0  0  0  0  0  0  0  0  0  0  0
   -3.3262    3.5637   -4.1826 F   0  0  0  0  0  0  0  0  0  0  0  0
   -2.2569    0.8273   -9.0034 F   0  0  0  0  0  0  0  0  0  0  0  0
   -1.7328   -0.5129  -11.2948 F   0  0  0  0  0  0  0  0  0  0  0  0
   -3.9219   -2.7364  -10.0048 F   0  0  0  0  0  0  0  0  0  0  0  0
   -1.5591   -3.7258   -9.1097 F   0  0  0  0  0  0  0  0  0  0  0  0
   -4.6222   -3.6173   -6.7983 F   0  0  0  0  0  0  0  0  0  0  0  0
   -2.2442   -2.9452   -5.7542 F   0  0  0  0  0  0  0  0  0  0  0  0
    1.5271   -2.4782   -3.7675 F   0  0  0  0  0  0  0  0  0  0  0  0
    4.2190   -2.1635   -3.5773 F   0  0  0  0  0  0  0  0  0  0  0  0
   -2.1595   -0.7518   -3.8143 F   0  0  0  0  0  0  0  0  0  0  0  0
   -4.4282    0.5593   -3.1600 F   0  0  0  0  0  0  0  0  0  0  0  0
    1.1127    1.0122   -9.0568 F   0  0  0  0  0  0  0  0  0  0  0  0
    1.4236   -1.3385  -10.3793 F   0  0  0  0  0  0  0  0  0  0  0  0
   -5.9785   -0.6887   -5.8664 F   0  0  0  0  0  0  0  0  0  0  0  0
   -4.2748    0.6673   -7.4527 F   0  0  0  0  0  0  0  0  0  0  0  0
  1  2  1  0
  1  3  1  0
  2  7  1  0
  2 14  1  0
  2 15  1  0
  3  4  1  0
  3 16  1  0
  3 17  1  0
  4  5  1  0
  4 30  1  0
  4 31  1  0
  5  8  1  0
  5 18  1  0
  5 19  1  0
  6  7  1  0
  6  9  1  0
  6 32  1  0
  6 33  1  0
  7 22  1  0
  7 23  1  0
  8 10  1  0
  8 20  1  0
  8 21  1  0
  9 11  1  0
  9 36  1  0
  9 37  1  0
 10 12  1  0
 10 34  1  0
 10 35  1  0
 11 13  1  0
 11 28  1  0
 11 29  1  0
 12 13  1  0
 12 24  1  0
 12 25  1  0
 13 26  1  0
 13 27  1  0
M  CHG  1   1   1
M  RAD  1   1   2
M  END
$$$$

     RDKit          3D

 37 37  0  0  0  0  0  0  0  0999 V2000
    0.2794    0.8001   -2.9882 S   0  0  0  0  0  2  0  0  0  0  0  0
    0.5951    2.8251   -2.5699 Si  0  0  0  0  0  4  0  0  0  0  0  0
   -0.9796    0.3017   -4.5698 Si  0  0  0  0  0  4  0  0  0  0  0  0
    0.0536   -0.9809   -6.1171 Si  0  0  0  0  0  4  0  0  0  0  0  0
    1.6912   -2.0857   -5.1353 Si  0  0  0  0  0  4  0  0  0  0  0  0
    0.1725    5.2693   -5.3018 Si  0  0  0  0  0  4  0  0  0  0  0  0
   -0.7454    4.2355   -3.5941 Si  0  0  0  0  0  4  0  0  0  0  0  0
    3.1873   -2.8841   -6.5429 Si  0  0  0  0  0  4  0  0  0  0  0  0
    0.9908    3.9927   -6.8794 Si  0  0  0  0  0  4  0  0  0  0  0  0
    3.6823   -1.4976   -8.1893 Si  0  0  0  0  0  4  0  0  0  0  0  0
    2.8710    2.9395   -6.2372 Si  0  0  0  0  0  4  0  0  0  0  0  0
    4.9310    0.2194   -7.5133 Si  0  0  0  0  0  4  0  0  0  0  0  0
    3.9581    2.1795   -8.0617 Si  0  0  0  0  0  4  0  0  0  0  0  0
    2.2008    3.3179   -2.9039 F   0  0  0  0  0  0  0  0  0  0  0  0
    0.4660    3.0033   -0.8686 F   0  0  0  0  0  0  0  0  0  0  0  0
   -2.2622   -0.6579   -3.9727 F   0  0  0  0  0  0  0  0  0  0  0  0
   -1.6663    1.5667   -5.3934 F   0  0  0  0  0  0  0  0  0  0  0  0
    2.4619   -1.0847   -4.0127 F   0  0  0  0  0  0  0  0  0  0  0  0
    1.0100   -3.3754   -4.2623 F   0  0  0  0  0  0  0  0  0  0  0  0
    4.5977   -3.2541   -5.6874 F   0  0  0  0  0  0  0  0  0  0  0  0
    2.6306   -4.3408   -7.2230 F   0  0  0  0  0  0  0  0  0  0  0  0
   -1.1189    5.4752   -2.4647 F   0  0  0  0  0  0  0  0  0  0  0  0
   -2.2639    3.5711   -3.9561 F   0  0  0  0  0  0  0  0  0  0  0  0
    6.4970    0.1418   -8.1359 F   0  0  0  0  0  0  0  0  0  0  0  0
    5.0544    0.1174   -5.8195 F   0  0  0  0  0  0  0  0  0  0  0  0
    2.8303    1.8353   -9.2778 F   0  0  0  0  0  0  0  0  0  0  0  0
    5.1217    3.2684   -8.5685 F   0  0  0  0  0  0  0  0  0  0  0  0
    3.8248    4.0251   -5.4052 F   0  0  0  0  0  0  0  0  0  0  0  0
    2.4390    1.6005   -5.3484 F   0  0  0  0  0  0  0  0  0  0  0  0
   -1.0850   -1.9600   -6.8350 F   0  0  0  0  0  0  0  0  0  0  0  0
    0.6810    0.0447   -7.3115 F   0  0  0  0  0  0  0  0  0  0  0  0
   -0.9879    6.3010   -5.9831 F   0  0  0  0  0  0  0  0  0  0  0  0
    1.4119    6.2744   -4.7195 F   0  0  0  0  0  0  0  0  0  0  0  0
    2.2929   -0.9854   -8.9957 F   0  0  0  0  0  0  0  0  0  0  0  0
    4.6057   -2.3620   -9.3353 F   0  0  0  0  0  0  0  0  0  0  0  0
    1.4809    5.0355   -8.1475 F   0  0  0  0  0  0  0  0  0  0  0  0
   -0.1067    2.9366   -7.5503 F   0  0  0  0  0  0  0  0  0  0  0  0
  1  2  1  0
  1  3  1  0
  2  7  1  0
  2 14  1  0
  2 15  1  0
  3  4  1  0
  3 16  1  0
  3 17  1  0
  4  5  1  0
  4 30  1  0
  4 31  1  0
  5  8  1  0
  5 18  1  0
  5 19  1  0
  6  7  1  0
  6  9  1  0
  6 32  1  0
  6 33  1  0
  7 22  1  0
  7 23  1  0
  8 10  1  0
  8 20  1  0
  8 21  1  0
  9 11  1  0
  9 36  1  0
  9 37  1  0
 10 12  1  0
 10 34  1  0
 10 35  1  0
 11 13  1  0
 11 28  1  0
 11 29  1  0
 12 13  1  0
 12 24  1  0
 12 25  1  0
 13 26  1  0
 13 27  1  0
M  CHG  1   1   1
M  RAD  1   1   2
M  END
$$$$

     RDKit          3D

 37 37  0  0  0  0  0  0  0  0999 V2000
    0.2794    0.8001   -2.9882 S   0  0  0  0  0  2  0  0  0  0  0  0
   -0.6860    2.0401   -4.4010 Si  0  0  0  0  0  4  0  0  0  0  0  0
    0.8974   -1.0701   -3.7262 Si  0  0  0  0  0  4  0  0  0  0  0  0
   -0.0101   -1.6269   -5.6554 Si  0  0  0  0  0  4  0  0  0  0  0  0
    0.0460   -3.8579   -5.9781 Si  0  0  0  0  0  4  0  0  0  0  0  0
   -0.2993    2.8749   -7.9454 Si  0  0  0  0  0  4  0  0  0  0  0  0
    0.7295    2.7179   -6.0225 Si  0  0  0  0  0  4  0  0  0  0  0  0
    0.2029   -4.2169   -8.1988 Si  0  0  0  0  0  4  0  0  0  0  0  0
    0.3893    1.5087   -9.5170 Si  0  0  0  0  0  4  0  0  0  0  0  0
    2.1374   -3.3597   -8.9699 Si  0  0  0  0  0  4  0  0  0  0  0  0
    2.5595    1.1267   -9.5232 Si  0  0  0  0  0  4  0  0  0  0  0  0
    1.7960   -2.2355  -10.8414 Si  0  0  0  0  0  4  0  0  0  0  0  0
    3.0659   -0.4290  -11.0080 Si  0  0  0  0  0  4  0  0  0  0  0  0
   -1.2755    3.4079   -3.5842 F   0  0  0  0  0  0  0  0  0  0  0  0
   -2.0435    1.2979   -5.1041 F   0  0  0  0  0  0  0  0  0  0  0  0
    2.5927   -1.0390   -3.9299 F   0  0  0  0  0  0  0  0  0  0  0  0
    0.5977   -2.3305   -2.6170 F   0  0  0  0  0  0  0  0  0  0  0  0
    1.3921   -4.5106   -5.2280 F   0  0  0  0  0  0  0  0  0  0  0  0
   -1.3902   -4.5712   -5.4700 F   0  0  0  0  0  0  0  0  0  0  0  0
    0.0672   -5.8356   -8.5658 F   0  0  0  0  0  0  0  0  0  0  0  0
   -1.0488   -3.3422   -8.9179 F   0  0  0  0  0  0  0  0  0  0  0  0
    1.3146    4.2523   -5.5507 F   0  0  0  0  0  0  0  0  0  0  0  0
    2.0322    1.6843   -6.0020 F   0  0  0  0  0  0  0  0  0  0  0  0
    2.1884   -3.2493  -12.1536 F   0  0  0  0  0  0  0  0  0  0  0  0
    0.1781   -1.7989  -11.0423 F   0  0  0  0  0  0  0  0  0  0  0  0
    2.8662    0.2209  -12.5554 F   0  0  0  0  0  0  0  0  0  0  0  0
    4.6944   -0.8536  -10.8582 F   0  0  0  0  0  0  0  0  0  0  0  0
    3.1738    0.6723   -8.0483 F   0  0  0  0  0  0  0  0  0  0  0  0
    3.3478    2.5673   -9.9885 F   0  0  0  0  0  0  0  0  0  0  0  0
    0.9388   -0.9656   -6.8866 F   0  0  0  0  0  0  0  0  0  0  0  0
   -1.6009   -1.1105   -5.8155 F   0  0  0  0  0  0  0  0  0  0  0  0
   -1.9687    2.6049   -7.6952 F   0  0  0  0  0  0  0  0  0  0  0  0
   -0.2010    4.4726   -8.5418 F   0  0  0  0  0  0  0  0  0  0  0  0
    2.8851   -2.4259   -7.7866 F   0  0  0  0  0  0  0  0  0  0  0  0
    3.1576   -4.6861   -9.2648 F   0  0  0  0  0  0  0  0  0  0  0  0
   -0.4185    0.0335   -9.3725 F   0  0  0  0  0  0  0  0  0  0  0  0
   -0.0397    2.1509  -11.0278 F   0  0  0  0  0  0  0  0  0  0  0  0
  1  2  1  0
  1  3  1  0
  2  7  1  0
  2 14  1  0
  2 15  1  0
  3  4  1  0
  3 16  1  0
  3 17  1  0
  4  5  1  0
  4 30  1  0
  4 31  1  0
  5  8  1  0
  5 18  1  0
  5 19  1  0
  6  7  1  0
  6  9  1  0
  6 32  1  0
  6 33  1  0
  7 22  1  0
  7 23  1  0
  8 10  1  0
  8 20  1  0
  8 21  1  0
  9 11  1  0
  9 36  1  0
  9 37  1  0
 10 12  1  0
 10 34  1  0
 10 35  1  0
 11 13  1  0
 11 28  1  0
 11 29  1  0
 12 13  1  0
 12 24  1  0
 12 25  1  0
 13 26  1  0
 13 27  1  0
M  CHG  1   1   1
M  RAD  1   1   2
M  END
$$$$

     RDKit          3D

 37 37  0  0  0  0  0  0  0  0999 V2000
    0.2794    0.8001   -2.9882 S   0  0  0  0  0  2  0  0  0  0  0  0
   -0.3346    2.5154   -4.0337 Si  0  0  0  0  0  4  0  0  0  0  0  0
    2.1166   -0.0226   -3.5949 Si  0  0  0  0  0  4  0  0  0  0  0  0
    3.5062    1.4578   -4.4853 Si  0  0  0  0  0  4  0  0  0  0  0  0
    5.4238    0.4648   -5.0218 Si  0  0  0  0  0  4  0  0  0  0  0  0
   -1.0864    0.8330   -7.2293 Si  0  0  0  0  0  4  0  0  0  0  0  0
   -1.9368    2.0495   -5.5513 Si  0  0  0  0  0  4  0  0  0  0  0  0
    5.1302   -1.2371   -6.4051 Si  0  0  0  0  0  4  0  0  0  0  0  0
   -0.8535    2.0291   -9.0773 Si  0  0  0  0  0  4  0  0  0  0  0  0
    4.6287   -0.5441   -8.4811 Si  0  0  0  0  0  4  0  0  0  0  0  0
    1.2145    1.7029   -9.9186 Si  0  0  0  0  0  4  0  0  0  0  0  0
    2.7887   -1.5556   -9.1325 Si  0  0  0  0  0  4  0  0  0  0  0  0
    1.5424   -0.3765  -10.5085 Si  0  0  0  0  0  4  0  0  0  0  0  0
   -1.0417    3.6052   -2.9293 F   0  0  0  0  0  0  0  0  0  0  0  0
    0.8914    3.3291   -4.8133 F   0  0  0  0  0  0  0  0  0  0  0  0
    1.8840   -1.3287   -4.6645 F   0  0  0  0  0  0  0  0  0  0  0  0
    2.8837   -0.6860   -2.2244 F   0  0  0  0  0  0  0  0  0  0  0  0
    6.2489   -0.0834   -3.6618 F   0  0  0  0  0  0  0  0  0  0  0  0
    6.4077    1.6077   -5.7973 F   0  0  0  0  0  0  0  0  0  0  0  0
    3.9412   -2.3022   -5.8267 F   0  0  0  0  0  0  0  0  0  0  0  0
    6.5678   -2.1160   -6.4846 F   0  0  0  0  0  0  0  0  0  0  0  0
   -3.1224    1.0941   -4.7952 F   0  0  0  0  0  0  0  0  0  0  0  0
   -2.5999    3.4445   -6.1679 F   0  0  0  0  0  0  0  0  0  0  0  0
    3.2372   -2.9854   -9.9574 F   0  0  0  0  0  0  0  0  0  0  0  0
    1.9165   -2.0991   -7.7693 F   0  0  0  0  0  0  0  0  0  0  0  0
    0.0329   -1.1518  -10.6574 F   0  0  0  0  0  0  0  0  0  0  0  0
    2.2464   -0.4482  -12.0615 F   0  0  0  0  0  0  0  0  0  0  0  0
    2.2912    2.2963   -8.8041 F   0  0  0  0  0  0  0  0  0  0  0  0
    1.3128    2.6904  -11.3046 F   0  0  0  0  0  0  0  0  0  0  0  0
    2.8975    2.1618   -5.8693 F   0  0  0  0  0  0  0  0  0  0  0  0
    3.8568    2.6232   -3.2942 F   0  0  0  0  0  0  0  0  0  0  0  0
   -2.0828   -0.4847   -7.5730 F   0  0  0  0  0  0  0  0  0  0  0  0
    0.4198    0.2835   -6.7292 F   0  0  0  0  0  0  0  0  0  0  0  0
    5.8834   -0.9537   -9.5614 F   0  0  0  0  0  0  0  0  0  0  0  0
    4.5234    1.1159   -8.4514 F   0  0  0  0  0  0  0  0  0  0  0  0
   -2.0241    1.6873  -10.2291 F   0  0  0  0  0  0  0  0  0  0  0  0
   -0.9198    3.6776   -8.6393 F   0  0  0  0  0  0  0  0  0  0  0  0
  1  2  1  0
  1  3  1  0
  2  7  1  0
  2 14  1  0
  2 15  1  0
  3  4  1  0
  3 16  1  0
  3 17  1  0
  4  5  1  0
  4 30  1  0
  4 31  1  0
  5  8  1  0
  5 18  1  0
  5 19  1  0
  6  7  1  0
  6  9  1  0
  6 32  1  0
  6 33  1  0
  7 22  1  0
  7 23  1  0
  8 10  1  0
  8 20  1  0
  8 21  1  0
  9 11  1  0
  9 36  1  0
  9 37  1  0
 10 12  1  0
 10 34  1  0
 10 35  1  0
 11 13  1  0
 11 28  1  0
 11 29  1  0
 12 13  1  0
 12 24  1  0
 12 25  1  0
 13 26  1  0
 13 27  1  0
M  CHG  1   1   1
M  RAD  1   1   2
M  END
$$$$

     RDKit          3D

 37 37  0  0  0  0  0  0  0  0999 V2000
    0.2794    0.8001   -2.9882 S   0  0  0  0  0  2  0  0  0  0  0  0
    1.3050    0.1500   -4.7177 Si  0  0  0  0  0  4  0  0  0  0  0  0
    0.3528    2.8733   -2.6409 Si  0  0  0  0  0  4  0  0  0  0  0  0
    1.8895    3.9334   -3.8114 Si  0  0  0  0  0  4  0  0  0  0  0  0
    2.4452    5.8973   -2.8528 Si  0  0  0  0  0  4  0  0  0  0  0  0
    1.7953    1.3314   -8.1489 Si  0  0  0  0  0  4  0  0  0  0  0  0
    0.3120    0.8890   -6.6047 Si  0  0  0  0  0  4  0  0  0  0  0  0
    3.0345    7.3143   -4.5050 Si  0  0  0  0  0  4  0  0  0  0  0  0
    1.9321    3.4287   -8.7760 Si  0  0  0  0  0  4  0  0  0  0  0  0
    1.2690    7.6808   -5.8542 Si  0  0  0  0  0  4  0  0  0  0  0  0
    0.0083    4.5012   -8.8397 Si  0  0  0  0  0  4  0  0  0  0  0  0
    1.8769    7.5649   -7.9755 Si  0  0  0  0  0  4  0  0  0  0  0  0
    0.3323    6.6444   -9.2679 Si  0  0  0  0  0  4  0  0  0  0  0  0
    1.2975   -1.5486   -4.7262 F   0  0  0  0  0  0  0  0  0  0  0  0
    2.9416    0.6075   -4.7191 F   0  0  0  0  0  0  0  0  0  0  0  0
   -1.1675    3.5432   -3.0366 F   0  0  0  0  0  0  0  0  0  0  0  0
    0.5948    3.2416   -0.9933 F   0  0  0  0  0  0  0  0  0  0  0  0
    1.1261    6.5311   -2.0411 F   0  0  0  0  0  0  0  0  0  0  0  0
    3.7926    5.7181   -1.8617 F   0  0  0  0  0  0  0  0  0  0  0  0
    3.6404    8.7414   -3.8971 F   0  0  0  0  0  0  0  0  0  0  0  0
    4.2059    6.5208   -5.4253 F   0  0  0  0  0  0  0  0  0  0  0  0
   -0.7222   -0.3631   -7.1354 F   0  0  0  0  0  0  0  0  0  0  0  0
   -0.6650    2.1657   -6.1788 F   0  0  0  0  0  0  0  0  0  0  0  0
    2.1314    9.1501   -8.5464 F   0  0  0  0  0  0  0  0  0  0  0  0
    3.3367    6.7431   -8.1812 F   0  0  0  0  0  0  0  0  0  0  0  0
    0.8226    6.8017  -10.8778 F   0  0  0  0  0  0  0  0  0  0  0  0
   -1.1250    7.4850   -9.1122 F   0  0  0  0  0  0  0  0  0  0  0  0
   -0.8904    4.3681   -7.4491 F   0  0  0  0  0  0  0  0  0  0  0  0
   -0.9178    3.8490  -10.1166 F   0  0  0  0  0  0  0  0  0  0  0  0
    1.2187    4.3327   -5.3095 F   0  0  0  0  0  0  0  0  0  0  0  0
    3.2937    3.0375   -4.0309 F   0  0  0  0  0  0  0  0  0  0  0  0
    3.3328    0.8396   -7.5863 F   0  0  0  0  0  0  0  0  0  0  0  0
    1.5119    0.3740   -9.5349 F   0  0  0  0  0  0  0  0  0  0  0  0
    0.0130    6.6231   -5.4870 F   0  0  0  0  0  0  0  0  0  0  0  0
    0.7141    9.2453   -5.4918 F   0  0  0  0  0  0  0  0  0  0  0  0
    2.9784    4.2570   -7.7420 F   0  0  0  0  0  0  0  0  0  0  0  0
    2.6263    3.4939  -10.3229 F   0  0  0  0  0  0  0  0  0  0  0  0
  1  2  1  0
  1  3  1  0
  2  7  1  0
  2 14  1  0
  2 15  1  0
  3  4  1  0
  3 16  1  0
  3 17  1  0
  4  5  1  0
  4 30  1  0
  4 31  1  0
  5  8  1  0
  5 18  1  0
  5 19  1  0
  6  7  1  0
  6  9  1  0
  6 32  1  0
  6 33  1  0
  7 22  1  0
  7 23  1  0
  8 10  1  0
  8 20  1  0
  8 21  1  0
  9 11  1  0
  9 36  1  0
  9 37  1  0
 10 12  1  0
 10 34  1  0
 10 35  1  0
 11 13  1  0
 11 28  1  0
 11 29  1  0
 12 13  1  0
 12 24  1  0
 12 25  1  0
 13 26  1  0
 13 27  1  0
M  CHG  1   1   1
M  RAD  1   1   2
M  END
$$$$

     RDKit          3D

 37 37  0  0  0  0  0  0  0  0999 V2000
    0.2794    0.8001   -2.9882 S   0  0  0  0  0  2  0  0  0  0  0  0
    1.9045    1.0695   -4.3301 Si  0  0  0  0  0  4  0  0  0  0  0  0
   -1.4558    1.8930   -3.5665 Si  0  0  0  0  0  4  0  0  0  0  0  0
   -2.9267    0.5237   -4.5713 Si  0  0  0  0  0  4  0  0  0  0  0  0
   -1.7694   -1.2887   -5.2605 Si  0  0  0  0  0  4  0  0  0  0  0  0
    3.1687   -0.8723   -7.1823 Si  0  0  0  0  0  4  0  0  0  0  0  0
    2.8102   -0.8624   -4.9654 Si  0  0  0  0  0  4  0  0  0  0  0  0
   -3.1137   -2.5640   -6.4273 Si  0  0  0  0  0  4  0  0  0  0  0  0
    3.4460   -2.9423   -7.9449 Si  0  0  0  0  0  4  0  0  0  0  0  0
   -2.3346   -4.5612   -6.8992 Si  0  0  0  0  0  4  0  0  0  0  0  0
    1.4635   -4.0051   -8.1011 Si  0  0  0  0  0  4  0  0  0  0  0  0
   -0.8231   -5.3359   -5.5268 Si  0  0  0  0  0  4  0  0  0  0  0  0
    1.2236   -5.4154   -6.4249 Si  0  0  0  0  0  4  0  0  0  0  0  0
    3.0915    1.9926   -3.5381 F   0  0  0  0  0  0  0  0  0  0  0  0
    1.3667    1.9716   -5.6505 F   0  0  0  0  0  0  0  0  0  0  0  0
   -1.0846    3.1908   -4.5701 F   0  0  0  0  0  0  0  0  0  0  0  0
   -2.2310    2.5353   -2.1928 F   0  0  0  0  0  0  0  0  0  0  0  0
   -0.5450   -0.6983   -6.2805 F   0  0  0  0  0  0  0  0  0  0  0  0
   -1.1520   -1.9956   -3.8921 F   0  0  0  0  0  0  0  0  0  0  0  0
   -4.6054   -2.6774   -5.6047 F   0  0  0  0  0  0  0  0  0  0  0  0
   -3.4710   -1.7698   -7.8934 F   0  0  0  0  0  0  0  0  0  0  0  0
    4.2422   -1.1506   -4.1437 F   0  0  0  0  0  0  0  0  0  0  0  0
    1.7621   -2.1438   -4.6283 F   0  0  0  0  0  0  0  0  0  0  0  0
   -0.7200   -4.5008   -4.0708 F   0  0  0  0  0  0  0  0  0  0  0  0
   -1.2073   -6.9473   -5.1012 F   0  0  0  0  0  0  0  0  0  0  0  0
    1.5923   -6.9757   -6.9584 F   0  0  0  0  0  0  0  0  0  0  0  0
    2.3861   -5.0326   -5.2377 F   0  0  0  0  0  0  0  0  0  0  0  0
    1.4490   -4.8692   -9.5719 F   0  0  0  0  0  0  0  0  0  0  0  0
    0.2096   -2.9026   -8.1687 F   0  0  0  0  0  0  0  0  0  0  0  0
   -4.1009   -0.0021   -3.4711 F   0  0  0  0  0  0  0  0  0  0  0  0
   -3.6764    1.2752   -5.8558 F   0  0  0  0  0  0  0  0  0  0  0  0
    1.8784   -0.1645   -7.9914 F   0  0  0  0  0  0  0  0  0  0  0  0
    4.6071   -0.0238   -7.4565 F   0  0  0  0  0  0  0  0  0  0  0  0
   -3.6726   -5.6247   -6.9581 F   0  0  0  0  0  0  0  0  0  0  0  0
   -1.6949   -4.5674   -8.4827 F   0  0  0  0  0  0  0  0  0  0  0  0
    4.1222   -2.8354   -9.4980 F   0  0  0  0  0  0  0  0  0  0  0  0
    4.5078   -3.8283   -6.9780 F   0  0  0  0  0  0  0  0  0  0  0  0
  1  2  1  0
  1  3  1  0
  2  7  1  0
  2 14  1  0
  2 15  1  0
  3  4  1  0
  3 16  1  0
  3 17  1  0
  4  5  1  0
  4 30  1  0
  4 31  1  0
  5  8  1  0
  5 18  1  0
  5 19  1  0
  6  7  1  0
  6  9  1  0
  6 32  1  0
  6 33  1  0
  7 22  1  0
  7 23  1  0
  8 10  1  0
  8 20  1  0
  8 21  1  0
  9 11  1  0
  9 36  1  0
  9 37  1  0
 10 12  1  0
 10 34  1  0
 10 35  1  0
 11 13  1  0
 11 28  1  0
 11 29  1  0
 12 13  1  0
 12 24  1  0
 12 25  1  0
 13 26  1  0
 13 27  1  0
M  CHG  1   1   1
M  RAD  1   1   2
M  END
$$$$

     RDKit          3D

 37 37  0  0  0  0  0  0  0  0999 V2000
    0.2794    0.8001   -2.9882 S   0  0  0  0  0  2  0  0  0  0  0  0
   -0.7953    0.6984   -4.8049 Si  0  0  0  0  0  4  0  0  0  0  0  0
    2.3282    0.3503   -3.1440 Si  0  0  0  0  0  4  0  0  0  0  0  0
    2.8964   -0.6432   -5.0269 Si  0  0  0  0  0  4  0  0  0  0  0  0
    4.8341   -1.7754   -4.8081 Si  0  0  0  0  0  4  0  0  0  0  0  0
   -0.2323    1.6001   -8.3091 Si  0  0  0  0  0  4  0  0  0  0  0  0
   -0.1574    2.3151   -6.2442 Si  0  0  0  0  0  4  0  0  0  0  0  0
    5.8612   -1.7536   -6.8154 Si  0  0  0  0  0  4  0  0  0  0  0  0
    1.6885    1.5095   -9.3639 Si  0  0  0  0  0  4  0  0  0  0  0  0
    6.3620    0.3663   -7.3871 Si  0  0  0  0  0  4  0  0  0  0  0  0
    3.0890    3.1388   -8.8745 Si  0  0  0  0  0  4  0  0  0  0  0  0
    5.8300    0.7466   -9.4979 Si  0  0  0  0  0  4  0  0  0  0  0  0
    5.0469    2.7900   -9.8369 Si  0  0  0  0  0  4  0  0  0  0  0  0
   -2.4445    0.9010   -4.4523 F   0  0  0  0  0  0  0  0  0  0  0  0
   -0.6644   -0.8190   -5.5589 F   0  0  0  0  0  0  0  0  0  0  0  0
    3.2130    1.8064   -3.0276 F   0  0  0  0  0  0  0  0  0  0  0  0
    2.8750   -0.6163   -1.8495 F   0  0  0  0  0  0  0  0  0  0  0  0
    5.8180   -1.0144   -3.6885 F   0  0  0  0  0  0  0  0  0  0  0  0
    4.5439   -3.3881   -4.4273 F   0  0  0  0  0  0  0  0  0  0  0  0
    7.2180   -2.7192   -6.8166 F   0  0  0  0  0  0  0  0  0  0  0  0
    4.7350   -2.3176   -7.9390 F   0  0  0  0  0  0  0  0  0  0  0  0
   -1.2513    3.6115   -6.0392 F   0  0  0  0  0  0  0  0  0  0  0  0
    1.3302    2.8628   -5.7410 F   0  0  0  0  0  0  0  0  0  0  0  0
    7.2391    0.5845  -10.4423 F   0  0  0  0  0  0  0  0  0  0  0  0
    4.7233   -0.3796  -10.0941 F   0  0  0  0  0  0  0  0  0  0  0  0
    4.8758    3.0249  -11.5019 F   0  0  0  0  0  0  0  0  0  0  0  0
    6.1643    3.9333   -9.2902 F   0  0  0  0  0  0  0  0  0  0  0  0
    3.3304    3.3613   -7.2462 F   0  0  0  0  0  0  0  0  0  0  0  0
    2.4503    4.5911   -9.5042 F   0  0  0  0  0  0  0  0  0  0  0  0
    3.1983    0.5564   -6.1773 F   0  0  0  0  0  0  0  0  0  0  0  0
    1.7263   -1.7053   -5.5976 F   0  0  0  0  0  0  0  0  0  0  0  0
   -0.9237    0.0367   -8.3209 F   0  0  0  0  0  0  0  0  0  0  0  0
   -1.3059    2.5581   -9.2297 F   0  0  0  0  0  0  0  0  0  0  0  0
    5.6277    1.4534   -6.3334 F   0  0  0  0  0  0  0  0  0  0  0  0
    8.0392    0.5305   -7.1703 F   0  0  0  0  0  0  0  0  0  0  0  0
    2.4404    0.0341   -9.0361 F   0  0  0  0  0  0  0  0  0  0  0  0
    1.3979    1.5452  -11.0353 F   0  0  0  0  0  0  0  0  0  0  0  0
  1  2  1  0
  1  3  1  0
  2  7  1  0
  2 14  1  0
  2 15  1  0
  3  4  1  0
  3 16  1  0
  3 17  1  0
  4  5  1  0
  4 30  1  0
  4 31  1  0
  5  8  1  0
  5 18  1  0
  5 19  1  0
  6  7  1  0
  6  9  1  0
  6 32  1  0
  6 33  1  0
  7 22  1  0
  7 23  1  0
  8 10  1  0
  8 20  1  0
  8 21  1  0
  9 11  1  0
  9 36  1  0
  9 37  1  0
 10 12  1  0
 10 34  1  0
 10 35  1  0
 11 13  1  0
 11 28  1  0
 11 29  1  0
 12 13  1  0
 12 24  1  0
 12 25  1  0
 13 26  1  0
 13 27  1  0
M  CHG  1   1   1
M  RAD  1   1   2
M  END
$$$$

     RDKit          3D

 37 37  0  0  0  0  0  0  0  0999 V2000
    0.2794    0.8001   -2.9882 S   0  0  0  0  0  2  0  0  0  0  0  0
    1.2853    0.1363   -4.7240 Si  0  0  0  0  0  4  0  0  0  0  0  0
    0.3896    2.8711   -2.6373 Si  0  0  0  0  0  4  0  0  0  0  0  0
    1.9383    3.9074   -3.8132 Si  0  0  0  0  0  4  0  0  0  0  0  0
    2.5319    5.8596   -2.8535 Si  0  0  0  0  0  4  0  0  0  0  0  0
    1.7787    1.3161   -8.1553 Si  0  0  0  0  0  4  0  0  0  0  0  0
    0.2957    0.8958   -6.6046 Si  0  0  0  0  0  4  0  0  0  0  0  0
    3.1370    7.2698   -4.5059 Si  0  0  0  0  0  4  0  0  0  0  0  0
    1.9479    3.4120   -8.7789 Si  0  0  0  0  0  4  0  0  0  0  0  0
    1.3714    7.6688   -5.8457 Si  0  0  0  0  0  4  0  0  0  0  0  0
    0.0423    4.5172   -8.8311 Si  0  0  0  0  0  4  0  0  0  0  0  0
    1.9668    7.5470   -7.9702 Si  0  0  0  0  0  4  0  0  0  0  0  0
    0.4004    6.6554   -9.2567 Si  0  0  0  0  0  4  0  0  0  0  0  0
    1.2490   -1.5619   -4.7358 F   0  0  0  0  0  0  0  0  0  0  0  0
    2.9294    0.5660   -4.7326 F   0  0  0  0  0  0  0  0  0  0  0  0
   -1.1210    3.5674   -3.0240 F   0  0  0  0  0  0  0  0  0  0  0  0
    0.6460    3.2318   -0.9901 F   0  0  0  0  0  0  0  0  0  0  0  0
    1.2277    6.5140   -2.0341 F   0  0  0  0  0  0  0  0  0  0  0  0
    3.8809    5.6556   -1.8695 F   0  0  0  0  0  0  0  0  0  0  0  0
    3.7700    8.6852   -3.8982 F   0  0  0  0  0  0  0  0  0  0  0  0
    4.2903    6.4584   -5.4335 F   0  0  0  0  0  0  0  0  0  0  0  0
   -0.7622   -0.3375   -7.1327 F   0  0  0  0  0  0  0  0  0  0  0  0
   -0.6574    2.1880   -6.1714 F   0  0  0  0  0  0  0  0  0  0  0  0
    2.2453    9.1289   -8.5392 F   0  0  0  0  0  0  0  0  0  0  0  0
    3.4114    6.7010   -8.1847 F   0  0  0  0  0  0  0  0  0  0  0  0
    0.8854    6.8077  -10.8686 F   0  0  0  0  0  0  0  0  0  0  0  0
   -1.0416    7.5203   -9.0922 F   0  0  0  0  0  0  0  0  0  0  0  0
   -0.8517    4.3965   -7.4363 F   0  0  0  0  0  0  0  0  0  0  0  0
   -0.9010    3.8833  -10.1046 F   0  0  0  0  0  0  0  0  0  0  0  0
    1.2670    4.3210   -5.3072 F   0  0  0  0  0  0  0  0  0  0  0  0
    3.3260    2.9882   -4.0415 F   0  0  0  0  0  0  0  0  0  0  0  0
    3.3103    0.7972   -7.6013 F   0  0  0  0  0  0  0  0  0  0  0  0
    1.4723    0.3665   -9.5417 F   0  0  0  0  0  0  0  0  0  0  0  0
    0.0994    6.6318   -5.4743 F   0  0  0  0  0  0  0  0  0  0  0  0
    0.8448    9.2418   -5.4774 F   0  0  0  0  0  0  0  0  0  0  0  0
    3.0132    4.2204   -7.7486 F   0  0  0  0  0  0  0  0  0  0  0  0
    2.6355    3.4687  -10.3291 F   0  0  0  0  0  0  0  0  0  0  0  0
  1  2  1  0
  1  3  1  0
  2  7  1  0
  2 14  1  0
  2 15  1  0
  3  4  1  0
  3 16  1  0
  3 17  1  0
  4  5  1  0
  4 30  1  0
  4 31  1  0
  5  8  1  0
  5 18  1  0
  5 19  1  0
  6  7  1  0
  6  9  1  0
  6 32  1  0
  6 33  1  0
  7 22  1  0
  7 23  1  0
  8 10  1  0
  8 20  1  0
  8 21  1  0
  9 11  1  0
  9 36  1  0
  9 37  1  0
 10 12  1  0
 10 34  1  0
 10 35  1  0
 11 13  1  0
 11 28  1  0
 11 29  1  0
 12 13  1  0
 12 24  1  0
 12 25  1  0
 13 26  1  0
 13 27  1  0
M  CHG  1   1   1
M  RAD  1   1   2
M  END
$$$$

     RDKit          3D

 37 37  0  0  0  0  0  0  0  0999 V2000
    0.2794    0.8001   -2.9882 S   0  0  0  0  0  2  0  0  0  0  0  0
   -0.2374    2.4254   -4.2359 Si  0  0  0  0  0  4  0  0  0  0  0  0
   -0.0115   -1.1001   -3.8419 Si  0  0  0  0  0  4  0  0  0  0  0  0
   -1.2717   -1.0973   -5.6494 Si  0  0  0  0  0  4  0  0  0  0  0  0
   -2.1743   -3.1289   -6.0268 Si  0  0  0  0  0  4  0  0  0  0  0  0
    0.0705    3.2900   -7.7809 Si  0  0  0  0  0  4  0  0  0  0  0  0
    1.1460    2.5882   -6.0114 Si  0  0  0  0  0  4  0  0  0  0  0  0
   -2.4217   -3.3562   -8.2566 Si  0  0  0  0  0  4  0  0  0  0  0  0
   -0.0396    1.8818   -9.4587 Si  0  0  0  0  0  4  0  0  0  0  0  0
   -0.4024   -3.3031   -9.2521 Si  0  0  0  0  0  4  0  0  0  0  0  0
    1.7661    0.6539   -9.7543 Si  0  0  0  0  0  4  0  0  0  0  0  0
   -0.4520   -2.0026  -11.0379 Si  0  0  0  0  0  4  0  0  0  0  0  0
    1.4224   -0.8596  -11.3268 Si  0  0  0  0  0  4  0  0  0  0  0  0
   -0.1190    3.8506   -3.3192 F   0  0  0  0  0  0  0  0  0  0  0  0
   -1.8477    2.3516   -4.7740 F   0  0  0  0  0  0  0  0  0  0  0  0
    1.5131   -1.7444   -4.2624 F   0  0  0  0  0  0  0  0  0  0  0  0
   -0.6808   -2.2086   -2.7318 F   0  0  0  0  0  0  0  0  0  0  0  0
   -1.1435   -4.3248   -5.4720 F   0  0  0  0  0  0  0  0  0  0  0  0
   -3.7123   -3.2337   -5.3533 F   0  0  0  0  0  0  0  0  0  0  0  0
   -3.2507   -4.7488   -8.6393 F   0  0  0  0  0  0  0  0  0  0  0  0
   -3.2725   -1.9986   -8.7878 F   0  0  0  0  0  0  0  0  0  0  0  0
    2.3583    3.7141   -5.5849 F   0  0  0  0  0  0  0  0  0  0  0  0
    1.9015    1.1166   -6.1828 F   0  0  0  0  0  0  0  0  0  0  0  0
   -0.6570   -2.9888  -12.4123 F   0  0  0  0  0  0  0  0  0  0  0  0
   -1.7581   -0.9338  -11.0179 F   0  0  0  0  0  0  0  0  0  0  0  0
    1.3410   -0.0725  -12.8203 F   0  0  0  0  0  0  0  0  0  0  0  0
    2.7374   -1.9180  -11.3986 F   0  0  0  0  0  0  0  0  0  0  0  0
    2.2953   -0.1178   -8.3819 F   0  0  0  0  0  0  0  0  0  0  0  0
    3.0218    1.6809  -10.2852 F   0  0  0  0  0  0  0  0  0  0  0  0
   -0.2748   -0.7890   -6.9779 F   0  0  0  0  0  0  0  0  0  0  0  0
   -2.5159    0.0302   -5.5906 F   0  0  0  0  0  0  0  0  0  0  0  0
   -1.5239    3.7028   -7.3229 F   0  0  0  0  0  0  0  0  0  0  0  0
    0.7523    4.7497   -8.3489 F   0  0  0  0  0  0  0  0  0  0  0  0
    0.7873   -2.8427   -8.1548 F   0  0  0  0  0  0  0  0  0  0  0  0
   -0.0573   -4.9036   -9.7063 F   0  0  0  0  0  0  0  0  0  0  0  0
   -1.3621    0.8547   -9.2441 F   0  0  0  0  0  0  0  0  0  0  0  0
   -0.3279    2.7520  -10.8865 F   0  0  0  0  0  0  0  0  0  0  0  0
  1  2  1  0
  1  3  1  0
  2  7  1  0
  2 14  1  0
  2 15  1  0
  3  4  1  0
  3 16  1  0
  3 17  1  0
  4  5  1  0
  4 30  1  0
  4 31  1  0
  5  8  1  0
  5 18  1  0
  5 19  1  0
  6  7  1  0
  6  9  1  0
  6 32  1  0
  6 33  1  0
  7 22  1  0
  7 23  1  0
  8 10  1  0
  8 20  1  0
  8 21  1  0
  9 11  1  0
  9 36  1  0
  9 37  1  0
 10 12  1  0
 10 34  1  0
 10 35  1  0
 11 13  1  0
 11 28  1  0
 11 29  1  0
 12 13  1  0
 12 24  1  0
 12 25  1  0
 13 26  1  0
 13 27  1  0
M  CHG  1   1   1
M  RAD  1   1   2
M  END
$$$$

     RDKit          3D

 37 37  0  0  0  0  0  0  0  0999 V2000
    0.2794    0.8001   -2.9882 S   0  0  0  0  0  2  0  0  0  0  0  0
    1.9022    1.0447   -4.3376 Si  0  0  0  0  0  4  0  0  0  0  0  0
   -1.4398    1.9234   -3.5557 Si  0  0  0  0  0  4  0  0  0  0  0  0
   -2.9387    0.5813   -4.5559 Si  0  0  0  0  0  4  0  0  0  0  0  0
   -1.8157   -1.2490   -5.2544 Si  0  0  0  0  0  4  0  0  0  0  0  0
    3.1193   -0.9124   -7.1998 Si  0  0  0  0  0  4  0  0  0  0  0  0
    2.7719   -0.9010   -4.9811 Si  0  0  0  0  0  4  0  0  0  0  0  0
   -3.1871   -2.4990   -6.4170 Si  0  0  0  0  0  4  0  0  0  0  0  0
    3.3576   -2.9853   -7.9678 Si  0  0  0  0  0  4  0  0  0  0  0  0
   -2.4443   -4.5082   -6.8967 Si  0  0  0  0  0  4  0  0  0  0  0  0
    1.3567   -4.0140   -8.1163 Si  0  0  0  0  0  4  0  0  0  0  0  0
   -0.9394   -5.3112   -5.5332 Si  0  0  0  0  0  4  0  0  0  0  0  0
    1.1012   -5.4235   -6.4416 Si  0  0  0  0  0  4  0  0  0  0  0  0
    3.1086    1.9459   -3.5497 F   0  0  0  0  0  0  0  0  0  0  0  0
    1.3733    1.9584   -5.6536 F   0  0  0  0  0  0  0  0  0  0  0  0
   -1.0516    3.2168   -4.5586 F   0  0  0  0  0  0  0  0  0  0  0  0
   -2.1973    2.5759   -2.1770 F   0  0  0  0  0  0  0  0  0  0  0  0
   -0.5865   -0.6774   -6.2793 F   0  0  0  0  0  0  0  0  0  0  0  0
   -1.2036   -1.9691   -3.8904 F   0  0  0  0  0  0  0  0  0  0  0  0
   -4.6765   -2.5888   -5.5872 F   0  0  0  0  0  0  0  0  0  0  0  0
   -3.5381   -1.6959   -7.8798 F   0  0  0  0  0  0  0  0  0  0  0  0
    4.2028   -1.2151   -4.1672 F   0  0  0  0  0  0  0  0  0  0  0  0
    1.7039   -2.1651   -4.6414 F   0  0  0  0  0  0  0  0  0  0  0  0
   -0.8151   -4.4809   -4.0762 F   0  0  0  0  0  0  0  0  0  0  0  0
   -1.3487   -6.9166   -5.1089 F   0  0  0  0  0  0  0  0  0  0  0  0
    1.4407   -6.9887   -6.9800 F   0  0  0  0  0  0  0  0  0  0  0  0
    2.2758   -5.0629   -5.2595 F   0  0  0  0  0  0  0  0  0  0  0  0
    1.3203   -4.8748   -9.5887 F   0  0  0  0  0  0  0  0  0  0  0  0
    0.1214   -2.8904   -8.1755 F   0  0  0  0  0  0  0  0  0  0  0  0
   -4.1161    0.0732   -3.4509 F   0  0  0  0  0  0  0  0  0  0  0  0
   -3.6818    1.3479   -5.8353 F   0  0  0  0  0  0  0  0  0  0  0  0
    1.8371   -0.1812   -8.0011 F   0  0  0  0  0  0  0  0  0  0  0  0
    4.5705   -0.0879   -7.4795 F   0  0  0  0  0  0  0  0  0  0  0  0
   -3.8004   -5.5488   -6.9510 F   0  0  0  0  0  0  0  0  0  0  0  0
   -1.8126   -4.5220   -8.4833 F   0  0  0  0  0  0  0  0  0  0  0  0
    4.0280   -2.8867   -9.5241 F   0  0  0  0  0  0  0  0  0  0  0  0
    4.4090   -3.8912   -7.0079 F   0  0  0  0  0  0  0  0  0  0  0  0
  1  2  1  0
  1  3  1  0
  2  7  1  0
  2 14  1  0
  2 15  1  0
  3  4  1  0
  3 16  1  0
  3 17  1  0
  4  5  1  0
  4 30  1  0
  4 31  1  0
  5  8  1  0
  5 18  1  0
  5 19  1  0
  6  7  1  0
  6  9  1  0
  6 32  1  0
  6 33  1  0
  7 22  1  0
  7 23  1  0
  8 10  1  0
  8 20  1  0
  8 21  1  0
  9 11  1  0
  9 36  1  0
  9 37  1  0
 10 12  1  0
 10 34  1  0
 10 35  1  0
 11 13  1  0
 11 28  1  0
 11 29  1  0
 12 13  1  0
 12 24  1  0
 12 25  1  0
 13 26  1  0
 13 27  1  0
M  CHG  1   1   1
M  RAD  1   1   2
M  END
$$$$
