
     RDKit          3D

 37 37  0  0  0  0  0  0  0  0999 V2000
   -0.0004    0.6559    1.5521 S   0  0  0  0  0  2  0  0  0  0  0  0
   -1.2150    2.3902    1.6809 Si  0  0  0  0  0  4  0  0  0  0  0  0
    1.3997    0.4824    3.1336 Si  0  0  0  0  0  4  0  0  0  0  0  0
    0.4633   -0.4206    4.9298 Si  0  0  0  0  0  4  0  0  0  0  0  0
    1.6978   -0.2012    6.7446 Si  0  0  0  0  0  4  0  0  0  0  0  0
   -1.3098    6.0241    1.9976 Si  0  0  0  0  0  4  0  0  0  0  0  0
   -0.0034    4.2536    1.8295 Si  0  0  0  0  0  4  0  0  0  0  0  0
    2.3663    1.8509    7.1380 Si  0  0  0  0  0  4  0  0  0  0  0  0
   -1.3637    6.8422    4.0781 Si  0  0  0  0  0  4  0  0  0  0  0  0
    0.7969    3.1017    8.1176 Si  0  0  0  0  0  4  0  0  0  0  0  0
   -2.9308    5.8774    5.3078 Si  0  0  0  0  0  4  0  0  0  0  0  0
   -1.0697    3.1700    6.9261 Si  0  0  0  0  0  4  0  0  0  0  0  0
   -2.0876    5.1447    7.2661 Si  0  0  0  0  0  4  0  0  0  0  0  0
   -2.1233    2.4968    0.2464 F   0  0  0  0  0  0  0  0  0  0  0  0
   -2.3105    2.2442    2.9412 F   0  0  0  0  0  0  0  0  0  0  0  0
    2.6325   -0.5827    2.6183 F   0  0  0  0  0  0  0  0  0  0  0  0
    2.1437    1.9488    3.4580 F   0  0  0  0  0  0  0  0  0  0  0  0
    0.8463   -0.7864    8.0623 F   0  0  0  0  0  0  0  0  0  0  0  0
    3.0744   -1.1934    6.5668 F   0  0  0  0  0  0  0  0  0  0  0  0
    3.6845    1.7825    8.2226 F   0  0  0  0  0  0  0  0  0  0  0  0
    2.9104    2.6644    5.7824 F   0  0  0  0  0  0  0  0  0  0  0  0
    0.9251    4.3594    0.4013 F   0  0  0  0  0  0  0  0  0  0  0  0
    1.0607    4.2309    3.1096 F   0  0  0  0  0  0  0  0  0  0  0  0
   -0.6597    3.1043    5.2938 F   0  0  0  0  0  0  0  0  0  0  0  0
   -2.0707    1.9163    7.3915 F   0  0  0  0  0  0  0  0  0  0  0  0
   -3.3805    4.8887    8.3033 F   0  0  0  0  0  0  0  0  0  0  0  0
   -1.0026    6.2863    7.8564 F   0  0  0  0  0  0  0  0  0  0  0  0
   -3.6171    4.5792    4.4654 F   0  0  0  0  0  0  0  0  0  0  0  0
   -4.1955    6.9396    5.6835 F   0  0  0  0  0  0  0  0  0  0  0  0
    0.3052   -2.0936    4.6175 F   0  0  0  0  0  0  0  0  0  0  0  0
   -1.1251    0.1436    5.1634 F   0  0  0  0  0  0  0  0  0  0  0  0
   -2.8702    5.7276    1.4388 F   0  0  0  0  0  0  0  0  0  0  0  0
   -0.6691    7.2551    1.0047 F   0  0  0  0  0  0  0  0  0  0  0  0
    1.4137    4.6911    8.1959 F   0  0  0  0  0  0  0  0  0  0  0  0
    0.5352    2.6016    9.7014 F   0  0  0  0  0  0  0  0  0  0  0  0
    0.1336    6.7446    4.8047 F   0  0  0  0  0  0  0  0  0  0  0  0
   -1.7565    8.4965    3.9432 F   0  0  0  0  0  0  0  0  0  0  0  0
  1  2  1  0
  1  3  1  0
  2  7  1  0
  2 14  1  0
  2 15  1  0
  3  4  1  0
  3 16  1  0
  3 17  1  0
  4  5  1  0
  4 30  1  0
  4 31  1  0
  5  8  1  0
  5 18  1  0
  5 19  1  0
  6  7  1  0
  6  9  1  0
  6 32  1  0
  6 33  1  0
  7 22  1  0
  7 23  1  0
  8 10  1  0
  8 20  1  0
  8 21  1  0
  9 11  1  0
  9 36  1  0
  9 37  1  0
 10 12  1  0
 10 34  1  0
 10 35  1  0
 11 13  1  0
 11 28  1  0
 11 29  1  0
 12 13  1  0
 12 24  1  0
 12 25  1  0
 13 26  1  0
 13 27  1  0
M  CHG  1   1   1
M  RAD  1   1   2
M  END
$$$$
