
     RDKit          3D

 37 37  0  0  0  0  0  0  0  0999 V2000
    0.1293    0.1546   -4.1817 S   0  0  0  0  0  2  0  0  0  0  0  0
   -0.3852   -1.3620   -5.5851 Si  0  0  0  0  0  4  0  0  0  0  0  0
    1.0449    1.8413   -5.0898 Si  0  0  0  0  0  4  0  0  0  0  0  0
   -0.1281    2.6320   -6.8054 Si  0  0  0  0  0  4  0  0  0  0  0  0
    1.3020    3.5198   -8.2907 Si  0  0  0  0  0  4  0  0  0  0  0  0
    1.6346   -3.5960   -7.7151 Si  0  0  0  0  0  4  0  0  0  0  0  0
    1.0774   -1.4720   -7.2170 Si  0  0  0  0  0  4  0  0  0  0  0  0
    0.4579    3.4358  -10.3574 Si  0  0  0  0  0  4  0  0  0  0  0  0
    3.3259   -3.4127   -9.1962 Si  0  0  0  0  0  4  0  0  0  0  0  0
    1.6920    2.0963  -11.6640 Si  0  0  0  0  0  4  0  0  0  0  0  0
    3.1511   -1.4587  -10.3118 Si  0  0  0  0  0  4  0  0  0  0  0  0
    0.5274    0.3103  -12.2223 Si  0  0  0  0  0  4  0  0  0  0  0  0
    1.5236   -1.5914  -11.7864 Si  0  0  0  0  0  4  0  0  0  0  0  0
   -0.4265   -2.8427   -4.7562 F   0  0  0  0  0  0  0  0  0  0  0  0
   -1.9212   -1.0823   -6.2244 F   0  0  0  0  0  0  0  0  0  0  0  0
    1.1236    3.0802   -3.9178 F   0  0  0  0  0  0  0  0  0  0  0  0
    2.6596    1.5327   -5.5303 F   0  0  0  0  0  0  0  0  0  0  0  0
    1.5863    5.1230   -7.8137 F   0  0  0  0  0  0  0  0  0  0  0  0
    2.7707    2.7062   -8.2832 F   0  0  0  0  0  0  0  0  0  0  0  0
    0.3832    4.9927  -10.9517 F   0  0  0  0  0  0  0  0  0  0  0  0
   -1.1339    2.8486  -10.2674 F   0  0  0  0  0  0  0  0  0  0  0  0
    2.5042   -0.7099   -6.7339 F   0  0  0  0  0  0  0  0  0  0  0  0
    0.4919   -0.7988   -8.6704 F   0  0  0  0  0  0  0  0  0  0  0  0
   -0.9978    0.3558  -11.4577 F   0  0  0  0  0  0  0  0  0  0  0  0
    0.1972    0.3973  -13.8948 F   0  0  0  0  0  0  0  0  0  0  0  0
    2.1482   -2.2540  -13.2205 F   0  0  0  0  0  0  0  0  0  0  0  0
    0.3711   -2.7097  -11.2105 F   0  0  0  0  0  0  0  0  0  0  0  0
    4.6361   -1.1960  -11.0658 F   0  0  0  0  0  0  0  0  0  0  0  0
    2.9189   -0.2156   -9.2012 F   0  0  0  0  0  0  0  0  0  0  0  0
   -1.0987    1.4664   -7.5131 F   0  0  0  0  0  0  0  0  0  0  0  0
   -1.1656    3.8665   -6.2479 F   0  0  0  0  0  0  0  0  0  0  0  0
    2.1504   -4.3857   -6.3241 F   0  0  0  0  0  0  0  0  0  0  0  0
    0.3193   -4.3613   -8.4243 F   0  0  0  0  0  0  0  0  0  0  0  0
    2.1227    3.0131  -13.0357 F   0  0  0  0  0  0  0  0  0  0  0  0
    3.1263    1.6784  -10.8960 F   0  0  0  0  0  0  0  0  0  0  0  0
    4.7550   -3.3505   -8.2963 F   0  0  0  0  0  0  0  0  0  0  0  0
    3.3153   -4.6991  -10.2526 F   0  0  0  0  0  0  0  0  0  0  0  0
  1  2  1  0
  1  3  1  0
  2  7  1  0
  2 14  1  0
  2 15  1  0
  3  4  1  0
  3 16  1  0
  3 17  1  0
  4  5  1  0
  4 30  1  0
  4 31  1  0
  5  8  1  0
  5 18  1  0
  5 19  1  0
  6  7  1  0
  6  9  1  0
  6 32  1  0
  6 33  1  0
  7 22  1  0
  7 23  1  0
  8 10  1  0
  8 20  1  0
  8 21  1  0
  9 11  1  0
  9 36  1  0
  9 37  1  0
 10 12  1  0
 10 34  1  0
 10 35  1  0
 11 13  1  0
 11 28  1  0
 11 29  1  0
 12 13  1  0
 12 24  1  0
 12 25  1  0
 13 26  1  0
 13 27  1  0
M  CHG  1   1   1
M  RAD  1   1   2
M  END
$$$$

     RDKit          3D

 37 37  0  0  0  0  0  0  0  0999 V2000
    0.1293    0.1546   -4.1817 S   0  0  0  0  0  2  0  0  0  0  0  0
   -1.2923   -0.6816   -5.5543 Si  0  0  0  0  0  4  0  0  0  0  0  0
    1.9826    0.6146   -5.1451 Si  0  0  0  0  0  4  0  0  0  0  0  0
    1.5579    1.4663   -7.1660 Si  0  0  0  0  0  4  0  0  0  0  0  0
    3.3942    2.3288   -8.0896 Si  0  0  0  0  0  4  0  0  0  0  0  0
   -3.0534    0.8738   -8.3954 Si  0  0  0  0  0  4  0  0  0  0  0  0
   -2.7877    0.8388   -6.1735 Si  0  0  0  0  0  4  0  0  0  0  0  0
    3.3333    4.5449   -8.0595 Si  0  0  0  0  0  4  0  0  0  0  0  0
   -3.1666    3.0111   -9.0409 Si  0  0  0  0  0  4  0  0  0  0  0  0
    2.5490    5.4020   -9.9426 Si  0  0  0  0  0  4  0  0  0  0  0  0
   -2.4970    3.3034  -11.1071 Si  0  0  0  0  0  4  0  0  0  0  0  0
    0.2942    5.4369   -9.9408 Si  0  0  0  0  0  4  0  0  0  0  0  0
   -0.3985    3.8922  -11.3347 Si  0  0  0  0  0  4  0  0  0  0  0  0
   -0.5247   -1.3910   -6.8695 F   0  0  0  0  0  0  0  0  0  0  0  0
   -2.1297   -1.9199   -4.7335 F   0  0  0  0  0  0  0  0  0  0  0  0
    3.0065   -0.6959   -5.2362 F   0  0  0  0  0  0  0  0  0  0  0  0
    2.7412    1.8260   -4.2286 F   0  0  0  0  0  0  0  0  0  0  0  0
    4.7875    1.8067   -7.2567 F   0  0  0  0  0  0  0  0  0  0  0  0
    3.5859    1.7693   -9.6904 F   0  0  0  0  0  0  0  0  0  0  0  0
    4.9259    5.1140   -7.8365 F   0  0  0  0  0  0  0  0  0  0  0  0
    2.4369    5.0290   -6.7152 F   0  0  0  0  0  0  0  0  0  0  0  0
   -2.2576    2.3573   -5.6245 F   0  0  0  0  0  0  0  0  0  0  0  0
   -4.2963    0.5722   -5.4603 F   0  0  0  0  0  0  0  0  0  0  0  0
   -0.2119    5.2480   -8.3779 F   0  0  0  0  0  0  0  0  0  0  0  0
   -0.2626    6.9525  -10.4901 F   0  0  0  0  0  0  0  0  0  0  0  0
   -0.1930    4.5109  -12.9157 F   0  0  0  0  0  0  0  0  0  0  0  0
    0.6633    2.5599  -11.2406 F   0  0  0  0  0  0  0  0  0  0  0  0
   -3.4817    4.4706  -11.8607 F   0  0  0  0  0  0  0  0  0  0  0  0
   -2.7503    1.8564  -11.9710 F   0  0  0  0  0  0  0  0  0  0  0  0
    0.3979    2.6587   -6.9888 F   0  0  0  0  0  0  0  0  0  0  0  0
    1.0072    0.2147   -8.1643 F   0  0  0  0  0  0  0  0  0  0  0  0
   -1.8393    0.0409   -9.1733 F   0  0  0  0  0  0  0  0  0  0  0  0
   -4.5252    0.1137   -8.7901 F   0  0  0  0  0  0  0  0  0  0  0  0
    3.1283    4.5073  -11.2452 F   0  0  0  0  0  0  0  0  0  0  0  0
    3.0737    6.9803  -10.0941 F   0  0  0  0  0  0  0  0  0  0  0  0
   -2.3485    3.9354   -7.9154 F   0  0  0  0  0  0  0  0  0  0  0  0
   -4.8137    3.4577   -8.9388 F   0  0  0  0  0  0  0  0  0  0  0  0
  1  2  1  0
  1  3  1  0
  2  7  1  0
  2 14  1  0
  2 15  1  0
  3  4  1  0
  3 16  1  0
  3 17  1  0
  4  5  1  0
  4 30  1  0
  4 31  1  0
  5  8  1  0
  5 18  1  0
  5 19  1  0
  6  7  1  0
  6  9  1  0
  6 32  1  0
  6 33  1  0
  7 22  1  0
  7 23  1  0
  8 10  1  0
  8 20  1  0
  8 21  1  0
  9 11  1  0
  9 36  1  0
  9 37  1  0
 10 12  1  0
 10 34  1  0
 10 35  1  0
 11 13  1  0
 11 28  1  0
 11 29  1  0
 12 13  1  0
 12 24  1  0
 12 25  1  0
 13 26  1  0
 13 27  1  0
M  CHG  1   1   1
M  RAD  1   1   2
M  END
$$$$

     RDKit          3D

 37 37  0  0  0  0  0  0  0  0999 V2000
    0.1293    0.1546   -4.1817 S   0  0  0  0  0  2  0  0  0  0  0  0
   -1.3487   -0.5023   -5.5667 Si  0  0  0  0  0  4  0  0  0  0  0  0
    1.9427    0.7316   -5.1235 Si  0  0  0  0  0  4  0  0  0  0  0  0
    1.6238    2.1814   -6.7790 Si  0  0  0  0  0  4  0  0  0  0  0  0
    3.2177    1.8513   -8.3250 Si  0  0  0  0  0  4  0  0  0  0  0  0
   -1.5673   -3.4311   -7.7986 Si  0  0  0  0  0  4  0  0  0  0  0  0
   -0.4425   -1.5549   -7.2653 Si  0  0  0  0  0  4  0  0  0  0  0  0
    2.5015    2.4633  -10.3507 Si  0  0  0  0  0  4  0  0  0  0  0  0
   -0.2876   -4.4437   -9.3558 Si  0  0  0  0  0  4  0  0  0  0  0  0
    2.3858    0.6920  -11.7194 Si  0  0  0  0  0  4  0  0  0  0  0  0
    0.9392   -2.8995  -10.4530 Si  0  0  0  0  0  4  0  0  0  0  0  0
    0.2833    0.2738  -12.2313 Si  0  0  0  0  0  4  0  0  0  0  0  0
   -0.3468   -1.7895  -11.8510 Si  0  0  0  0  0  4  0  0  0  0  0  0
   -2.4015   -1.5490   -4.7437 F   0  0  0  0  0  0  0  0  0  0  0  0
   -2.2537    0.8043   -6.1327 F   0  0  0  0  0  0  0  0  0  0  0  0
    2.9097    1.5087   -3.9506 F   0  0  0  0  0  0  0  0  0  0  0  0
    2.8508   -0.6119   -5.6399 F   0  0  0  0  0  0  0  0  0  0  0  0
    4.5672    2.7655   -7.8543 F   0  0  0  0  0  0  0  0  0  0  0  0
    3.6786    0.2380   -8.3895 F   0  0  0  0  0  0  0  0  0  0  0  0
    3.5333    3.6374  -10.9336 F   0  0  0  0  0  0  0  0  0  0  0  0
    0.9651    3.1706  -10.1896 F   0  0  0  0  0  0  0  0  0  0  0  0
    1.1182   -2.0427   -6.8455 F   0  0  0  0  0  0  0  0  0  0  0  0
   -0.4221   -0.6129   -8.6867 F   0  0  0  0  0  0  0  0  0  0  0  0
   -0.7384    1.3565  -11.3965 F   0  0  0  0  0  0  0  0  0  0  0  0
    0.0624    0.6292  -13.8862 F   0  0  0  0  0  0  0  0  0  0  0  0
   -0.4174   -2.6472  -13.3156 F   0  0  0  0  0  0  0  0  0  0  0  0
   -1.9348   -1.7855  -11.2274 F   0  0  0  0  0  0  0  0  0  0  0  0
    2.1509   -3.7365  -11.2739 F   0  0  0  0  0  0  0  0  0  0  0  0
    1.6880   -1.8974   -9.3269 F   0  0  0  0  0  0  0  0  0  0  0  0
    0.0929    2.0697   -7.4463 F   0  0  0  0  0  0  0  0  0  0  0  0
    1.7819    3.7667   -6.1682 F   0  0  0  0  0  0  0  0  0  0  0  0
   -1.7212   -4.4038   -6.4368 F   0  0  0  0  0  0  0  0  0  0  0  0
   -3.0582   -3.0163   -8.4495 F   0  0  0  0  0  0  0  0  0  0  0  0
    3.2982    1.0847  -13.1053 F   0  0  0  0  0  0  0  0  0  0  0  0
    3.1250   -0.6448  -11.0208 F   0  0  0  0  0  0  0  0  0  0  0  0
    0.7916   -5.4425   -8.5230 F   0  0  0  0  0  0  0  0  0  0  0  0
   -1.2368   -5.3067  -10.4165 F   0  0  0  0  0  0  0  0  0  0  0  0
  1  2  1  0
  1  3  1  0
  2  7  1  0
  2 14  1  0
  2 15  1  0
  3  4  1  0
  3 16  1  0
  3 17  1  0
  4  5  1  0
  4 30  1  0
  4 31  1  0
  5  8  1  0
  5 18  1  0
  5 19  1  0
  6  7  1  0
  6  9  1  0
  6 32  1  0
  6 33  1  0
  7 22  1  0
  7 23  1  0
  8 10  1  0
  8 20  1  0
  8 21  1  0
  9 11  1  0
  9 36  1  0
  9 37  1  0
 10 12  1  0
 10 34  1  0
 10 35  1  0
 11 13  1  0
 11 28  1  0
 11 29  1  0
 12 13  1  0
 12 24  1  0
 12 25  1  0
 13 26  1  0
 13 27  1  0
M  CHG  1   1   1
M  RAD  1   1   2
M  END
$$$$

     RDKit          3D

 37 37  0  0  0  0  0  0  0  0999 V2000
    0.1293    0.1546   -4.1817 S   0  0  0  0  0  2  0  0  0  0  0  0
   -1.4350   -0.3965   -5.5432 Si  0  0  0  0  0  4  0  0  0  0  0  0
    2.0265    0.2710   -5.1623 Si  0  0  0  0  0  4  0  0  0  0  0  0
    1.7472    1.1989   -7.1749 Si  0  0  0  0  0  4  0  0  0  0  0  0
    3.7024    1.7138   -8.1138 Si  0  0  0  0  0  4  0  0  0  0  0  0
   -2.9056    1.4747   -8.3589 Si  0  0  0  0  0  4  0  0  0  0  0  0
   -2.6300    1.3774   -6.1400 Si  0  0  0  0  0  4  0  0  0  0  0  0
    4.0516    3.9028   -8.0733 Si  0  0  0  0  0  4  0  0  0  0  0  0
   -2.6287    3.6002   -8.9937 Si  0  0  0  0  0  4  0  0  0  0  0  0
    3.4211    4.9016   -9.9443 Si  0  0  0  0  0  4  0  0  0  0  0  0
   -1.9361    3.7769  -11.0655 Si  0  0  0  0  0  4  0  0  0  0  0  0
    1.2116    5.3517   -9.9189 Si  0  0  0  0  0  4  0  0  0  0  0  0
    0.2328    3.9700  -11.3123 Si  0  0  0  0  0  4  0  0  0  0  0  0
   -0.8238   -1.2271   -6.8693 F   0  0  0  0  0  0  0  0  0  0  0  0
   -2.4787   -1.4643   -4.7192 F   0  0  0  0  0  0  0  0  0  0  0  0
    2.7902   -1.2054   -5.2698 F   0  0  0  0  0  0  0  0  0  0  0  0
    3.0041    1.3159   -4.2484 F   0  0  0  0  0  0  0  0  0  0  0  0
    4.9832    0.9385   -7.2977 F   0  0  0  0  0  0  0  0  0  0  0  0
    3.7724    1.1385   -9.7189 F   0  0  0  0  0  0  0  0  0  0  0  0
    5.7238    4.1671   -7.8643 F   0  0  0  0  0  0  0  0  0  0  0  0
    3.2726    4.5356   -6.7175 F   0  0  0  0  0  0  0  0  0  0  0  0
   -1.8238    2.7687   -5.5899 F   0  0  0  0  0  0  0  0  0  0  0  0
   -4.1552    1.3892   -5.4124 F   0  0  0  0  0  0  0  0  0  0  0  0
    0.6941    5.2497   -8.3516 F   0  0  0  0  0  0  0  0  0  0  0  0
    0.9388    6.9474  -10.4557 F   0  0  0  0  0  0  0  0  0  0  0  0
    0.5340    4.5500  -12.8926 F   0  0  0  0  0  0  0  0  0  0  0  0
    1.0314    2.4642  -11.2352 F   0  0  0  0  0  0  0  0  0  0  0  0
   -2.6957    5.1103  -11.8037 F   0  0  0  0  0  0  0  0  0  0  0  0
   -2.4601    2.4069  -11.9331 F   0  0  0  0  0  0  0  0  0  0  0  0
    0.8288    2.5837   -6.9804 F   0  0  0  0  0  0  0  0  0  0  0  0
    0.9657    0.0767   -8.1729 F   0  0  0  0  0  0  0  0  0  0  0  0
   -1.8733    0.4370   -9.1530 F   0  0  0  0  0  0  0  0  0  0  0  0
   -4.4960    1.0015   -8.7416 F   0  0  0  0  0  0  0  0  0  0  0  0
    3.8132    3.9235  -11.2568 F   0  0  0  0  0  0  0  0  0  0  0  0
    4.2265    6.3570  -10.0943 F   0  0  0  0  0  0  0  0  0  0  0  0
   -1.6435    4.3507   -7.8728 F   0  0  0  0  0  0  0  0  0  0  0  0
   -4.1641    4.3423   -8.8726 F   0  0  0  0  0  0  0  0  0  0  0  0
  1  2  1  0
  1  3  1  0
  2  7  1  0
  2 14  1  0
  2 15  1  0
  3  4  1  0
  3 16  1  0
  3 17  1  0
  4  5  1  0
  4 30  1  0
  4 31  1  0
  5  8  1  0
  5 18  1  0
  5 19  1  0
  6  7  1  0
  6  9  1  0
  6 32  1  0
  6 33  1  0
  7 22  1  0
  7 23  1  0
  8 10  1  0
  8 20  1  0
  8 21  1  0
  9 11  1  0
  9 36  1  0
  9 37  1  0
 10 12  1  0
 10 34  1  0
 10 35  1  0
 11 13  1  0
 11 28  1  0
 11 29  1  0
 12 13  1  0
 12 24  1  0
 12 25  1  0
 13 26  1  0
 13 27  1  0
M  CHG  1   1   1
M  RAD  1   1   2
M  END
$$$$

     RDKit          3D

 37 37  0  0  0  0  0  0  0  0999 V2000
    0.1293    0.1546   -4.1817 S   0  0  0  0  0  2  0  0  0  0  0  0
    1.8781   -0.4491   -5.2195 Si  0  0  0  0  0  4  0  0  0  0  0  0
   -0.4379    2.1811   -4.6746 Si  0  0  0  0  0  4  0  0  0  0  0  0
   -1.9300    2.1968   -6.2902 Si  0  0  0  0  0  4  0  0  0  0  0  0
   -1.5649    3.7003   -7.8509 Si  0  0  0  0  0  4  0  0  0  0  0  0
    2.6471   -1.8410   -8.5477 Si  0  0  0  0  0  4  0  0  0  0  0  0
    1.3869   -2.0355   -6.7408 Si  0  0  0  0  0  4  0  0  0  0  0  0
    0.5446    4.2881   -8.0637 Si  0  0  0  0  0  4  0  0  0  0  0  0
    1.3920   -1.7525  -10.4184 Si  0  0  0  0  0  4  0  0  0  0  0  0
    1.1080    4.6061  -10.2195 Si  0  0  0  0  0  4  0  0  0  0  0  0
    0.6978    0.3527  -10.7681 Si  0  0  0  0  0  4  0  0  0  0  0  0
    2.8490    3.3197  -10.7765 Si  0  0  0  0  0  4  0  0  0  0  0  0
    2.1684    1.5184  -11.9366 Si  0  0  0  0  0  4  0  0  0  0  0  0
    2.7139    0.8121   -5.9143 F   0  0  0  0  0  0  0  0  0  0  0  0
    2.9246   -1.1859   -4.0888 F   0  0  0  0  0  0  0  0  0  0  0  0
   -1.1682    2.8133   -3.2650 F   0  0  0  0  0  0  0  0  0  0  0  0
    0.9012    3.1327   -4.9803 F   0  0  0  0  0  0  0  0  0  0  0  0
   -2.0862    3.0579   -9.3448 F   0  0  0  0  0  0  0  0  0  0  0  0
   -2.5212    5.0791   -7.5830 F   0  0  0  0  0  0  0  0  0  0  0  0
    1.5511    3.1162   -7.4462 F   0  0  0  0  0  0  0  0  0  0  0  0
    0.7957    5.7252   -7.2026 F   0  0  0  0  0  0  0  0  0  0  0  0
    1.6468   -3.5745   -6.0763 F   0  0  0  0  0  0  0  0  0  0  0  0
   -0.2680   -1.9447   -7.0990 F   0  0  0  0  0  0  0  0  0  0  0  0
    4.0135    4.1583  -11.6210 F   0  0  0  0  0  0  0  0  0  0  0  0
    3.5321    2.7591   -9.3219 F   0  0  0  0  0  0  0  0  0  0  0  0
    1.4351    2.1173  -13.3545 F   0  0  0  0  0  0  0  0  0  0  0  0
    3.5397    0.6249  -12.3187 F   0  0  0  0  0  0  0  0  0  0  0  0
    0.3933    1.0249   -9.2589 F   0  0  0  0  0  0  0  0  0  0  0  0
   -0.7773    0.2723  -11.6121 F   0  0  0  0  0  0  0  0  0  0  0  0
   -1.9818    0.6370   -6.9824 F   0  0  0  0  0  0  0  0  0  0  0  0
   -3.4963    2.4613   -5.6622 F   0  0  0  0  0  0  0  0  0  0  0  0
    3.6639   -3.1986   -8.7369 F   0  0  0  0  0  0  0  0  0  0  0  0
    3.6103   -0.4721   -8.5335 F   0  0  0  0  0  0  0  0  0  0  0  0
   -0.1717    4.2861  -11.2402 F   0  0  0  0  0  0  0  0  0  0  0  0
    1.6014    6.2205  -10.4265 F   0  0  0  0  0  0  0  0  0  0  0  0
   -0.0081   -2.6929  -10.1781 F   0  0  0  0  0  0  0  0  0  0  0  0
    2.2116   -2.3650  -11.7326 F   0  0  0  0  0  0  0  0  0  0  0  0
  1  2  1  0
  1  3  1  0
  2  7  1  0
  2 14  1  0
  2 15  1  0
  3  4  1  0
  3 16  1  0
  3 17  1  0
  4  5  1  0
  4 30  1  0
  4 31  1  0
  5  8  1  0
  5 18  1  0
  5 19  1  0
  6  7  1  0
  6  9  1  0
  6 32  1  0
  6 33  1  0
  7 22  1  0
  7 23  1  0
  8 10  1  0
  8 20  1  0
  8 21  1  0
  9 11  1  0
  9 36  1  0
  9 37  1  0
 10 12  1  0
 10 34  1  0
 10 35  1  0
 11 13  1  0
 11 28  1  0
 11 29  1  0
 12 13  1  0
 12 24  1  0
 12 25  1  0
 13 26  1  0
 13 27  1  0
M  CHG  1   1   1
M  RAD  1   1   2
M  END
$$$$

     RDKit          3D

 37 37  0  0  0  0  0  0  0  0999 V2000
    0.1293    0.1546   -4.1817 S   0  0  0  0  0  2  0  0  0  0  0  0
   -0.7093    1.7015   -5.4096 Si  0  0  0  0  0  4  0  0  0  0  0  0
    0.5263   -1.6203   -5.3071 Si  0  0  0  0  0  4  0  0  0  0  0  0
    1.3377   -1.0450   -7.3071 Si  0  0  0  0  0  4  0  0  0  0  0  0
    2.1383   -2.8140   -8.4020 Si  0  0  0  0  0  4  0  0  0  0  0  0
    0.8141    3.6634   -8.1341 Si  0  0  0  0  0  4  0  0  0  0  0  0
    0.8271    3.2139   -5.9417 Si  0  0  0  0  0  4  0  0  0  0  0  0
    4.3552   -2.7984   -8.4242 Si  0  0  0  0  0  4  0  0  0  0  0  0
    2.9371    3.7890   -8.8230 Si  0  0  0  0  0  4  0  0  0  0  0  0
    5.1831   -1.8763  -10.2573 Si  0  0  0  0  0  4  0  0  0  0  0  0
    3.1649    3.2887  -10.9445 Si  0  0  0  0  0  4  0  0  0  0  0  0
    5.2660    0.3694  -10.0694 Si  0  0  0  0  0  4  0  0  0  0  0  0
    3.7032    1.2055  -11.3606 Si  0  0  0  0  0  4  0  0  0  0  0  0
   -1.4666    1.0602   -6.7651 F   0  0  0  0  0  0  0  0  0  0  0  0
   -1.9093    2.4912   -4.4904 F   0  0  0  0  0  0  0  0  0  0  0  0
   -0.8076   -2.6077   -5.4489 F   0  0  0  0  0  0  0  0  0  0  0  0
    1.7431   -2.4759   -4.4883 F   0  0  0  0  0  0  0  0  0  0  0  0
    1.6069   -4.2616   -7.6743 F   0  0  0  0  0  0  0  0  0  0  0  0
    1.5363   -2.8606   -9.9981 F   0  0  0  0  0  0  0  0  0  0  0  0
    4.8955   -4.4147   -8.3489 F   0  0  0  0  0  0  0  0  0  0  0  0
    4.8908   -2.0268   -7.0231 F   0  0  0  0  0  0  0  0  0  0  0  0
    2.3469    2.6107   -5.4780 F   0  0  0  0  0  0  0  0  0  0  0  0
    0.6101    4.6626   -5.0992 F   0  0  0  0  0  0  0  0  0  0  0  0
    5.1259    0.7468   -8.4655 F   0  0  0  0  0  0  0  0  0  0  0  0
    6.7795    0.9408  -10.6096 F   0  0  0  0  0  0  0  0  0  0  0  0
    4.2790    1.1208  -12.9686 F   0  0  0  0  0  0  0  0  0  0  0  0
    2.3513    0.1654  -11.3205 F   0  0  0  0  0  0  0  0  0  0  0  0
    4.3343    4.3102  -11.6438 F   0  0  0  0  0  0  0  0  0  0  0  0
    1.7032    3.6409  -11.7468 F   0  0  0  0  0  0  0  0  0  0  0  0
    2.5585    0.0731   -7.0653 F   0  0  0  0  0  0  0  0  0  0  0  0
    0.0744   -0.3889   -8.2236 F   0  0  0  0  0  0  0  0  0  0  0  0
   -0.0631    2.5347   -8.9882 F   0  0  0  0  0  0  0  0  0  0  0  0
    0.0762    5.1773   -8.3855 F   0  0  0  0  0  0  0  0  0  0  0  0
    4.2450   -2.3276  -11.5799 F   0  0  0  0  0  0  0  0  0  0  0  0
    6.7457   -2.4168  -10.4926 F   0  0  0  0  0  0  0  0  0  0  0  0
    3.8707    2.8621   -7.7936 F   0  0  0  0  0  0  0  0  0  0  0  0
    3.4210    5.4129   -8.5963 F   0  0  0  0  0  0  0  0  0  0  0  0
  1  2  1  0
  1  3  1  0
  2  7  1  0
  2 14  1  0
  2 15  1  0
  3  4  1  0
  3 16  1  0
  3 17  1  0
  4  5  1  0
  4 30  1  0
  4 31  1  0
  5  8  1  0
  5 18  1  0
  5 19  1  0
  6  7  1  0
  6  9  1  0
  6 32  1  0
  6 33  1  0
  7 22  1  0
  7 23  1  0
  8 10  1  0
  8 20  1  0
  8 21  1  0
  9 11  1  0
  9 36  1  0
  9 37  1  0
 10 12  1  0
 10 34  1  0
 10 35  1  0
 11 13  1  0
 11 28  1  0
 11 29  1  0
 12 13  1  0
 12 24  1  0
 12 25  1  0
 13 26  1  0
 13 27  1  0
M  CHG  1   1   1
M  RAD  1   1   2
M  END
$$$$

     RDKit          3D

 37 37  0  0  0  0  0  0  0  0999 V2000
    0.1293    0.1546   -4.1817 S   0  0  0  0  0  2  0  0  0  0  0  0
    1.2056   -1.0989   -5.5251 Si  0  0  0  0  0  4  0  0  0  0  0  0
   -0.7382    1.8382   -5.1414 Si  0  0  0  0  0  4  0  0  0  0  0  0
   -1.9359    1.2810   -6.9301 Si  0  0  0  0  0  4  0  0  0  0  0  0
   -1.8211    2.9646   -8.4106 Si  0  0  0  0  0  4  0  0  0  0  0  0
    4.2966   -0.6104   -7.4780 Si  0  0  0  0  0  4  0  0  0  0  0  0
    2.1839    0.0715   -7.1022 Si  0  0  0  0  0  4  0  0  0  0  0  0
   -2.0865    2.2103  -10.4966 Si  0  0  0  0  0  4  0  0  0  0  0  0
    5.1437    0.9110   -8.9117 Si  0  0  0  0  0  4  0  0  0  0  0  0
   -0.2189    2.5225  -11.6963 Si  0  0  0  0  0  4  0  0  0  0  0  0
    3.4745    1.8229  -10.1263 Si  0  0  0  0  0  4  0  0  0  0  0  0
    0.6827    0.5764  -12.2036 Si  0  0  0  0  0  4  0  0  0  0  0  0
    2.7918    0.3836  -11.6438 Si  0  0  0  0  0  4  0  0  0  0  0  0
    2.3775   -1.9360   -4.6266 F   0  0  0  0  0  0  0  0  0  0  0  0
    0.1775   -2.2383   -6.2259 F   0  0  0  0  0  0  0  0  0  0  0  0
   -1.8035    2.5750   -4.0293 F   0  0  0  0  0  0  0  0  0  0  0  0
    0.4196    3.0285   -5.5146 F   0  0  0  0  0  0  0  0  0  0  0  0
   -3.0405    4.0719   -8.0036 F   0  0  0  0  0  0  0  0  0  0  0  0
   -0.3446    3.7585   -8.3166 F   0  0  0  0  0  0  0  0  0  0  0  0
   -3.3988    2.9911  -11.1683 F   0  0  0  0  0  0  0  0  0  0  0  0
   -2.4598    0.5542  -10.4288 F   0  0  0  0  0  0  0  0  0  0  0  0
    2.2877    1.6835   -6.6117 F   0  0  0  0  0  0  0  0  0  0  0  0
    1.3871   -0.0555   -8.6046 F   0  0  0  0  0  0  0  0  0  0  0  0
   -0.2248   -0.6813  -11.4910 F   0  0  0  0  0  0  0  0  0  0  0  0
    0.5286    0.3465  -13.8879 F   0  0  0  0  0  0  0  0  0  0  0  0
    3.7691    0.5502  -13.0232 F   0  0  0  0  0  0  0  0  0  0  0  0
    3.0734   -1.1912  -11.0510 F   0  0  0  0  0  0  0  0  0  0  0  0
    4.1010    3.2138  -10.8445 F   0  0  0  0  0  0  0  0  0  0  0  0
    2.2409    2.3008   -9.0856 F   0  0  0  0  0  0  0  0  0  0  0  0
   -1.4414   -0.1659   -7.6106 F   0  0  0  0  0  0  0  0  0  0  0  0
   -3.5654    1.0775   -6.4668 F   0  0  0  0  0  0  0  0  0  0  0  0
    5.1571   -0.6051   -6.0344 F   0  0  0  0  0  0  0  0  0  0  0  0
    4.2690   -2.1303   -8.1906 F   0  0  0  0  0  0  0  0  0  0  0  0
   -0.6754    3.3817  -13.0966 F   0  0  0  0  0  0  0  0  0  0  0  0
    0.8625    3.5016  -10.8635 F   0  0  0  0  0  0  0  0  0  0  0  0
    5.8118    2.1457   -7.9708 F   0  0  0  0  0  0  0  0  0  0  0  0
    6.2790    0.2057   -9.9038 F   0  0  0  0  0  0  0  0  0  0  0  0
  1  2  1  0
  1  3  1  0
  2  7  1  0
  2 14  1  0
  2 15  1  0
  3  4  1  0
  3 16  1  0
  3 17  1  0
  4  5  1  0
  4 30  1  0
  4 31  1  0
  5  8  1  0
  5 18  1  0
  5 19  1  0
  6  7  1  0
  6  9  1  0
  6 32  1  0
  6 33  1  0
  7 22  1  0
  7 23  1  0
  8 10  1  0
  8 20  1  0
  8 21  1  0
  9 11  1  0
  9 36  1  0
  9 37  1  0
 10 12  1  0
 10 34  1  0
 10 35  1  0
 11 13  1  0
 11 28  1  0
 11 29  1  0
 12 13  1  0
 12 24  1  0
 12 25  1  0
 13 26  1  0
 13 27  1  0
M  CHG  1   1   1
M  RAD  1   1   2
M  END
$$$$

     RDKit          3D

 37 37  0  0  0  0  0  0  0  0999 V2000
    0.1293    0.1546   -4.1817 S   0  0  0  0  0  2  0  0  0  0  0  0
   -0.6585   -1.2811   -5.5682 Si  0  0  0  0  0  4  0  0  0  0  0  0
    1.5476    1.4571   -5.1124 Si  0  0  0  0  0  4  0  0  0  0  0  0
    0.8210    1.9765   -7.1598 Si  0  0  0  0  0  4  0  0  0  0  0  0
    2.0262    3.6219   -8.0597 Si  0  0  0  0  0  4  0  0  0  0  0  0
   -2.8696   -0.8094   -8.4805 Si  0  0  0  0  0  4  0  0  0  0  0  0
   -2.6876   -0.6936   -6.2529 Si  0  0  0  0  0  4  0  0  0  0  0  0
    0.8866    5.5236   -8.0776 Si  0  0  0  0  0  4  0  0  0  0  0  0
   -3.9959    0.9931   -9.1731 Si  0  0  0  0  0  4  0  0  0  0  0  0
   -0.1601    5.8724   -9.9955 Si  0  0  0  0  0  4  0  0  0  0  0  0
   -3.4936    1.5611  -11.2294 Si  0  0  0  0  0  4  0  0  0  0  0  0
   -2.1418    4.7974  -10.0454 Si  0  0  0  0  0  4  0  0  0  0  0  0
   -1.9468    3.1015  -11.4218 Si  0  0  0  0  0  4  0  0  0  0  0  0
    0.3973   -1.5326   -6.8505 F   0  0  0  0  0  0  0  0  0  0  0  0
   -0.8061   -2.7649   -4.7407 F   0  0  0  0  0  0  0  0  0  0  0  0
    3.0844    0.8162   -5.1528 F   0  0  0  0  0  0  0  0  0  0  0  0
    1.5876    2.8915   -4.2047 F   0  0  0  0  0  0  0  0  0  0  0  0
    3.4709    3.8559   -7.1847 F   0  0  0  0  0  0  0  0  0  0  0  0
    2.5153    3.2165   -9.6436 F   0  0  0  0  0  0  0  0  0  0  0  0
    1.9888    6.8020   -7.8306 F   0  0  0  0  0  0  0  0  0  0  0  0
   -0.1719    5.5159   -6.7643 F   0  0  0  0  0  0  0  0  0  0  0  0
   -2.9861    0.8937   -5.7241 F   0  0  0  0  0  0  0  0  0  0  0  0
   -3.8929   -1.6604   -5.5685 F   0  0  0  0  0  0  0  0  0  0  0  0
   -2.5371    4.3961   -8.4907 F   0  0  0  0  0  0  0  0  0  0  0  0
   -3.3529    5.8414  -10.6389 F   0  0  0  0  0  0  0  0  0  0  0  0
   -2.0234    3.7300  -13.0104 F   0  0  0  0  0  0  0  0  0  0  0  0
   -0.3719    2.4616  -11.2758 F   0  0  0  0  0  0  0  0  0  0  0  0
   -4.9008    2.0902  -12.0294 F   0  0  0  0  0  0  0  0  0  0  0  0
   -2.9796    0.1696  -12.0682 F   0  0  0  0  0  0  0  0  0  0  0  0
   -0.7791    2.4483   -7.0341 F   0  0  0  0  0  0  0  0  0  0  0  0
    0.9842    0.6085   -8.1439 F   0  0  0  0  0  0  0  0  0  0  0  0
   -1.3804   -0.9458   -9.2130 F   0  0  0  0  0  0  0  0  0  0  0  0
   -3.7678   -2.1964   -8.8922 F   0  0  0  0  0  0  0  0  0  0  0  0
    0.8220    5.3672  -11.2656 F   0  0  0  0  0  0  0  0  0  0  0  0
   -0.4715    7.5041  -10.1683 F   0  0  0  0  0  0  0  0  0  0  0  0
   -3.7696    2.2080   -8.0491 F   0  0  0  0  0  0  0  0  0  0  0  0
   -5.6528    0.5756   -9.1178 F   0  0  0  0  0  0  0  0  0  0  0  0
  1  2  1  0
  1  3  1  0
  2  7  1  0
  2 14  1  0
  2 15  1  0
  3  4  1  0
  3 16  1  0
  3 17  1  0
  4  5  1  0
  4 30  1  0
  4 31  1  0
  5  8  1  0
  5 18  1  0
  5 19  1  0
  6  7  1  0
  6  9  1  0
  6 32  1  0
  6 33  1  0
  7 22  1  0
  7 23  1  0
  8 10  1  0
  8 20  1  0
  8 21  1  0
  9 11  1  0
  9 36  1  0
  9 37  1  0
 10 12  1  0
 10 34  1  0
 10 35  1  0
 11 13  1  0
 11 28  1  0
 11 29  1  0
 12 13  1  0
 12 24  1  0
 12 25  1  0
 13 26  1  0
 13 27  1  0
M  CHG  1   1   1
M  RAD  1   1   2
M  END
$$$$

     RDKit          3D

 37 37  0  0  0  0  0  0  0  0999 V2000
    0.1293    0.1546   -4.1817 S   0  0  0  0  0  2  0  0  0  0  0  0
    0.7392   -1.3957   -5.5341 Si  0  0  0  0  0  4  0  0  0  0  0  0
    0.1536    2.0767   -5.1194 Si  0  0  0  0  0  4  0  0  0  0  0  0
   -0.6159    1.8754   -7.2067 Si  0  0  0  0  0  4  0  0  0  0  0  0
   -0.9900    3.8680   -8.1335 Si  0  0  0  0  0  4  0  0  0  0  0  0
   -0.9425   -2.7368   -8.5283 Si  0  0  0  0  0  4  0  0  0  0  0  0
   -1.0174   -2.5159   -6.3025 Si  0  0  0  0  0  4  0  0  0  0  0  0
   -3.1628    4.2901   -8.2606 Si  0  0  0  0  0  4  0  0  0  0  0  0
   -2.9993   -2.3736   -9.3251 Si  0  0  0  0  0  4  0  0  0  0  0  0
   -4.0256    3.7371  -10.2216 Si  0  0  0  0  0  4  0  0  0  0  0  0
   -2.9846   -1.6279  -11.3859 Si  0  0  0  0  0  4  0  0  0  0  0  0
   -4.5464    1.5440  -10.2895 Si  0  0  0  0  0  4  0  0  0  0  0  0
   -3.0877    0.5514  -11.5916 Si  0  0  0  0  0  4  0  0  0  0  0  0
    1.6941   -0.7826   -6.7728 F   0  0  0  0  0  0  0  0  0  0  0  0
    1.7026   -2.4936   -4.6538 F   0  0  0  0  0  0  0  0  0  0  0  0
    1.6574    2.7923   -5.0879 F   0  0  0  0  0  0  0  0  0  0  0  0
   -0.9306    3.0678   -4.2678 F   0  0  0  0  0  0  0  0  0  0  0  0
   -0.2433    5.1027   -7.2250 F   0  0  0  0  0  0  0  0  0  0  0  0
   -0.2840    3.9555   -9.6847 F   0  0  0  0  0  0  0  0  0  0  0  0
   -3.3898    5.9651   -8.0307 F   0  0  0  0  0  0  0  0  0  0  0  0
   -3.9284    3.5019   -6.9808 F   0  0  0  0  0  0  0  0  0  0  0  0
   -2.4224   -1.6759   -5.8457 F   0  0  0  0  0  0  0  0  0  0  0  0
   -1.1370   -4.0562   -5.6176 F   0  0  0  0  0  0  0  0  0  0  0  0
   -4.5888    0.9874   -8.7329 F   0  0  0  0  0  0  0  0  0  0  0  0
   -6.1010    1.3379  -10.9599 F   0  0  0  0  0  0  0  0  0  0  0  0
   -3.5273    0.9084  -13.2052 F   0  0  0  0  0  0  0  0  0  0  0  0
   -1.5686    1.2966  -11.3728 F   0  0  0  0  0  0  0  0  0  0  0  0
   -4.2771   -2.3247  -12.2484 F   0  0  0  0  0  0  0  0  0  0  0  0
   -1.5659   -2.1778  -12.1534 F   0  0  0  0  0  0  0  0  0  0  0  0
   -2.0404    1.0001   -7.1482 F   0  0  0  0  0  0  0  0  0  0  0  0
    0.5584    1.0796   -8.1309 F   0  0  0  0  0  0  0  0  0  0  0  0
    0.1888   -1.7223   -9.2095 F   0  0  0  0  0  0  0  0  0  0  0  0
   -0.4906   -4.3331   -8.9124 F   0  0  0  0  0  0  0  0  0  0  0  0
   -2.9319    4.1259  -11.4405 F   0  0  0  0  0  0  0  0  0  0  0  0
   -5.4375    4.5945  -10.4678 F   0  0  0  0  0  0  0  0  0  0  0  0
   -3.8068   -1.3897   -8.2433 F   0  0  0  0  0  0  0  0  0  0  0  0
   -3.7973   -3.8854   -9.3037 F   0  0  0  0  0  0  0  0  0  0  0  0
  1  2  1  0
  1  3  1  0
  2  7  1  0
  2 14  1  0
  2 15  1  0
  3  4  1  0
  3 16  1  0
  3 17  1  0
  4  5  1  0
  4 30  1  0
  4 31  1  0
  5  8  1  0
  5 18  1  0
  5 19  1  0
  6  7  1  0
  6  9  1  0
  6 32  1  0
  6 33  1  0
  7 22  1  0
  7 23  1  0
  8 10  1  0
  8 20  1  0
  8 21  1  0
  9 11  1  0
  9 36  1  0
  9 37  1  0
 10 12  1  0
 10 34  1  0
 10 35  1  0
 11 13  1  0
 11 28  1  0
 11 29  1  0
 12 13  1  0
 12 24  1  0
 12 25  1  0
 13 26  1  0
 13 27  1  0
M  CHG  1   1   1
M  RAD  1   1   2
M  END
$$$$

     RDKit          3D

 37 37  0  0  0  0  0  0  0  0999 V2000
    0.1293    0.1546   -4.1817 S   0  0  0  0  0  2  0  0  0  0  0  0
    0.5535   -1.4116   -5.5607 Si  0  0  0  0  0  4  0  0  0  0  0  0
    0.0295    2.0629   -5.1072 Si  0  0  0  0  0  4  0  0  0  0  0  0
   -1.3268    2.0899   -6.8691 Si  0  0  0  0  0  4  0  0  0  0  0  0
   -0.5456    3.5951   -8.3400 Si  0  0  0  0  0  4  0  0  0  0  0  0
    3.5247   -2.2310   -7.5873 Si  0  0  0  0  0  4  0  0  0  0  0  0
    1.9010   -0.7325   -7.1535 Si  0  0  0  0  0  4  0  0  0  0  0  0
   -1.1443    3.0573  -10.4240 Si  0  0  0  0  0  4  0  0  0  0  0  0
    4.9033   -1.1807   -9.0309 Si  0  0  0  0  0  4  0  0  0  0  0  0
    0.6576    2.5781  -11.6680 Si  0  0  0  0  0  4  0  0  0  0  0  0
    3.7470    0.3676  -10.1966 Si  0  0  0  0  0  4  0  0  0  0  0  0
    0.6492    0.4422  -12.2117 Si  0  0  0  0  0  4  0  0  0  0  0  0
    2.4934   -0.6267  -11.7067 Si  0  0  0  0  0  4  0  0  0  0  0  0
    1.2835   -2.6781   -4.6980 F   0  0  0  0  0  0  0  0  0  0  0  0
   -0.8715   -2.0028   -6.2436 F   0  0  0  0  0  0  0  0  0  0  0  0
   -0.6061    3.1594   -3.9634 F   0  0  0  0  0  0  0  0  0  0  0  0
    1.5721    2.6642   -5.5009 F   0  0  0  0  0  0  0  0  0  0  0  0
   -1.1795    5.1045   -7.8945 F   0  0  0  0  0  0  0  0  0  0  0  0
    1.1293    3.6950   -8.2775 F   0  0  0  0  0  0  0  0  0  0  0  0
   -2.0210    4.3277  -11.0568 F   0  0  0  0  0  0  0  0  0  0  0  0
   -2.1766    1.7094  -10.3587 F   0  0  0  0  0  0  0  0  0  0  0  0
    2.6813    0.6788   -6.6543 F   0  0  0  0  0  0  0  0  0  0  0  0
    1.0948   -0.4881   -8.6363 F   0  0  0  0  0  0  0  0  0  0  0  0
   -0.6879   -0.3310  -11.4856 F   0  0  0  0  0  0  0  0  0  0  0  0
    0.3795    0.3269  -13.8933 F   0  0  0  0  0  0  0  0  0  0  0  0
    3.4229   -0.8618  -13.1090 F   0  0  0  0  0  0  0  0  0  0  0  0
    2.1000   -2.1843  -11.1324 F   0  0  0  0  0  0  0  0  0  0  0  0
    4.8849    1.3796  -10.9204 F   0  0  0  0  0  0  0  0  0  0  0  0
    2.8488    1.3009   -9.1218 F   0  0  0  0  0  0  0  0  0  0  0  0
   -1.4986    0.5807   -7.5722 F   0  0  0  0  0  0  0  0  0  0  0  0
   -2.8817    2.5805   -6.3664 F   0  0  0  0  0  0  0  0  0  0  0  0
    4.3365   -2.6115   -6.1658 F   0  0  0  0  0  0  0  0  0  0  0  0
    2.8478   -3.5868   -8.3097 F   0  0  0  0  0  0  0  0  0  0  0  0
    0.5761    3.5732  -13.0502 F   0  0  0  0  0  0  0  0  0  0  0  0
    2.0664    2.9991  -10.8557 F   0  0  0  0  0  0  0  0  0  0  0  0
    6.0464   -0.3562   -8.0983 F   0  0  0  0  0  0  0  0  0  0  0  0
    5.6180   -2.2800  -10.0563 F   0  0  0  0  0  0  0  0  0  0  0  0
  1  2  1  0
  1  3  1  0
  2  7  1  0
  2 14  1  0
  2 15  1  0
  3  4  1  0
  3 16  1  0
  3 17  1  0
  4  5  1  0
  4 30  1  0
  4 31  1  0
  5  8  1  0
  5 18  1  0
  5 19  1  0
  6  7  1  0
  6  9  1  0
  6 32  1  0
  6 33  1  0
  7 22  1  0
  7 23  1  0
  8 10  1  0
  8 20  1  0
  8 21  1  0
  9 11  1  0
  9 36  1  0
  9 37  1  0
 10 12  1  0
 10 34  1  0
 10 35  1  0
 11 13  1  0
 11 28  1  0
 11 29  1  0
 12 13  1  0
 12 24  1  0
 12 25  1  0
 13 26  1  0
 13 27  1  0
M  CHG  1   1   1
M  RAD  1   1   2
M  END
$$$$
