
     RDKit          3D

 37 37  0  0  0  0  0  0  0  0999 V2000
   -2.1951   -1.7933   -3.2529 S   0  0  0  0  0  2  0  0  0  0  0  0
   -1.7703   -3.8927   -3.4693 Si  0  0  0  0  0  4  0  0  0  0  0  0
   -3.4104   -1.1285   -4.9047 Si  0  0  0  0  0  4  0  0  0  0  0  0
   -5.5272   -1.5264   -4.4345 Si  0  0  0  0  0  4  0  0  0  0  0  0
   -6.8084   -1.8094   -6.2025 Si  0  0  0  0  0  4  0  0  0  0  0  0
   -2.4566   -6.8426   -5.4915 Si  0  0  0  0  0  4  0  0  0  0  0  0
   -2.4757   -4.6273   -5.4624 Si  0  0  0  0  0  4  0  0  0  0  0  0
   -5.8274   -1.5676   -8.1341 Si  0  0  0  0  0  4  0  0  0  0  0  0
   -3.7360   -7.6896   -7.0995 Si  0  0  0  0  0  4  0  0  0  0  0  0
   -5.4895   -3.5154   -9.2144 Si  0  0  0  0  0  4  0  0  0  0  0  0
   -5.9069   -7.1899   -6.7458 Si  0  0  0  0  0  4  0  0  0  0  0  0
   -7.2587   -4.7843   -9.2534 Si  0  0  0  0  0  4  0  0  0  0  0  0
   -7.0007   -6.8612   -8.6073 Si  0  0  0  0  0  4  0  0  0  0  0  0
   -0.1213   -4.1779   -3.2805 F   0  0  0  0  0  0  0  0  0  0  0  0
   -2.6472   -4.7349   -2.2885 F   0  0  0  0  0  0  0  0  0  0  0  0
   -3.1942    0.5470   -5.0223 F   0  0  0  0  0  0  0  0  0  0  0  0
   -2.8546   -1.8687   -6.2755 F   0  0  0  0  0  0  0  0  0  0  0  0
   -8.1333   -0.7350   -6.0763 F   0  0  0  0  0  0  0  0  0  0  0  0
   -7.5095   -3.3632   -6.0915 F   0  0  0  0  0  0  0  0  0  0  0  0
   -4.3804   -0.7078   -8.0657 F   0  0  0  0  0  0  0  0  0  0  0  0
   -6.8328   -0.6550   -9.1617 F   0  0  0  0  0  0  0  0  0  0  0  0
   -4.0385   -4.0401   -5.6644 F   0  0  0  0  0  0  0  0  0  0  0  0
   -1.5031   -3.9886   -6.6923 F   0  0  0  0  0  0  0  0  0  0  0  0
   -8.4971   -4.0567   -8.3311 F   0  0  0  0  0  0  0  0  0  0  0  0
   -7.9112   -4.8517  -10.8368 F   0  0  0  0  0  0  0  0  0  0  0  0
   -8.5501   -7.5443   -8.4654 F   0  0  0  0  0  0  0  0  0  0  0  0
   -6.2282   -7.7352   -9.8546 F   0  0  0  0  0  0  0  0  0  0  0  0
   -6.0469   -5.9374   -5.6330 F   0  0  0  0  0  0  0  0  0  0  0  0
   -6.5634   -8.5544   -5.9723 F   0  0  0  0  0  0  0  0  0  0  0  0
   -5.5914   -2.8719   -3.3801 F   0  0  0  0  0  0  0  0  0  0  0  0
   -6.0754   -0.2311   -3.4815 F   0  0  0  0  0  0  0  0  0  0  0  0
   -0.8835   -7.3715   -5.7460 F   0  0  0  0  0  0  0  0  0  0  0  0
   -3.0388   -7.4075   -4.0134 F   0  0  0  0  0  0  0  0  0  0  0  0
   -4.1021   -4.2846   -8.6509 F   0  0  0  0  0  0  0  0  0  0  0  0
   -5.0774   -3.0580  -10.8150 F   0  0  0  0  0  0  0  0  0  0  0  0
   -3.5022   -9.3632   -7.0809 F   0  0  0  0  0  0  0  0  0  0  0  0
   -3.2484   -7.1595   -8.6279 F   0  0  0  0  0  0  0  0  0  0  0  0
  1  2  1  0
  1  3  1  0
  2  7  1  0
  2 14  1  0
  2 15  1  0
  3  4  1  0
  3 16  1  0
  3 17  1  0
  4  5  1  0
  4 30  1  0
  4 31  1  0
  5  8  1  0
  5 18  1  0
  5 19  1  0
  6  7  1  0
  6  9  1  0
  6 32  1  0
  6 33  1  0
  7 22  1  0
  7 23  1  0
  8 10  1  0
  8 20  1  0
  8 21  1  0
  9 11  1  0
  9 36  1  0
  9 37  1  0
 10 12  1  0
 10 34  1  0
 10 35  1  0
 11 13  1  0
 11 28  1  0
 11 29  1  0
 12 13  1  0
 12 24  1  0
 12 25  1  0
 13 26  1  0
 13 27  1  0
M  CHG  1   1   1
M  RAD  1   1   2
M  END
$$$$
