
     RDKit          3D

 37 37  0  0  0  0  0  0  0  0999 V2000
   -0.0509   -0.0659   -3.1542 S   0  0  0  0  0  2  0  0  0  0  0  0
    1.6980   -0.8991   -4.1272 Si  0  0  0  0  0  4  0  0  0  0  0  0
   -1.7612   -0.2807   -4.4680 Si  0  0  0  0  0  4  0  0  0  0  0  0
   -3.1998    1.3876   -4.1843 Si  0  0  0  0  0  4  0  0  0  0  0  0
   -3.8403    2.0820   -6.2336 Si  0  0  0  0  0  4  0  0  0  0  0  0
    1.6189   -2.2433   -7.5618 Si  0  0  0  0  0  4  0  0  0  0  0  0
    1.1157   -2.6313   -5.4054 Si  0  0  0  0  0  4  0  0  0  0  0  0
   -2.1115    3.0565   -7.1883 Si  0  0  0  0  0  4  0  0  0  0  0  0
    0.1863   -3.2753   -8.8962 Si  0  0  0  0  0  4  0  0  0  0  0  0
   -1.6043    2.2467   -9.1755 Si  0  0  0  0  0  4  0  0  0  0  0  0
   -0.7646   -1.8633  -10.3518 Si  0  0  0  0  0  4  0  0  0  0  0  0
   -3.1369    0.9451  -10.0476 Si  0  0  0  0  0  4  0  0  0  0  0  0
   -2.7717   -1.2203   -9.6519 Si  0  0  0  0  0  4  0  0  0  0  0  0
    2.7147   -1.4465   -2.8960 F   0  0  0  0  0  0  0  0  0  0  0  0
    2.5119    0.2789   -4.9912 F   0  0  0  0  0  0  0  0  0  0  0  0
   -2.5439   -1.7324   -4.2012 F   0  0  0  0  0  0  0  0  0  0  0  0
   -1.1267   -0.2697   -6.0521 F   0  0  0  0  0  0  0  0  0  0  0  0
   -5.1281    3.1714   -5.9703 F   0  0  0  0  0  0  0  0  0  0  0  0
   -4.4459    0.7876   -7.0723 F   0  0  0  0  0  0  0  0  0  0  0  0
   -0.7087    2.9598   -6.2168 F   0  0  0  0  0  0  0  0  0  0  0  0
   -2.4574    4.7274   -7.2858 F   0  0  0  0  0  0  0  0  0  0  0  0
   -0.5242   -2.9049   -5.2248 F   0  0  0  0  0  0  0  0  0  0  0  0
    1.9268   -4.0310   -4.9174 F   0  0  0  0  0  0  0  0  0  0  0  0
   -3.1031    1.1462  -11.7413 F   0  0  0  0  0  0  0  0  0  0  0  0
   -4.7011    1.3111   -9.5544 F   0  0  0  0  0  0  0  0  0  0  0  0
   -2.9283   -1.6118   -8.0397 F   0  0  0  0  0  0  0  0  0  0  0  0
   -3.9932   -2.0744  -10.4870 F   0  0  0  0  0  0  0  0  0  0  0  0
   -0.9746   -2.7382  -11.8036 F   0  0  0  0  0  0  0  0  0  0  0  0
    0.2500   -0.5891  -10.6919 F   0  0  0  0  0  0  0  0  0  0  0  0
   -4.5187    0.9587   -3.2590 F   0  0  0  0  0  0  0  0  0  0  0  0
   -2.4247    2.7031   -3.4571 F   0  0  0  0  0  0  0  0  0  0  0  0
    3.1962   -2.8527   -7.7962 F   0  0  0  0  0  0  0  0  0  0  0  0
    1.6856   -0.5979   -7.8043 F   0  0  0  0  0  0  0  0  0  0  0  0
   -0.1288    1.3899   -9.1294 F   0  0  0  0  0  0  0  0  0  0  0  0
   -1.3273    3.5568  -10.2248 F   0  0  0  0  0  0  0  0  0  0  0  0
    0.9993   -4.4996   -9.7325 F   0  0  0  0  0  0  0  0  0  0  0  0
   -0.9978   -4.0409   -7.9528 F   0  0  0  0  0  0  0  0  0  0  0  0
  1  2  1  0
  1  3  1  0
  2  7  1  0
  2 14  1  0
  2 15  1  0
  3  4  1  0
  3 16  1  0
  3 17  1  0
  4  5  1  0
  4 30  1  0
  4 31  1  0
  5  8  1  0
  5 18  1  0
  5 19  1  0
  6  7  1  0
  6  9  1  0
  6 32  1  0
  6 33  1  0
  7 22  1  0
  7 23  1  0
  8 10  1  0
  8 20  1  0
  8 21  1  0
  9 11  1  0
  9 36  1  0
  9 37  1  0
 10 12  1  0
 10 34  1  0
 10 35  1  0
 11 13  1  0
 11 28  1  0
 11 29  1  0
 12 13  1  0
 12 24  1  0
 12 25  1  0
 13 26  1  0
 13 27  1  0
M  CHG  1   1   1
M  RAD  1   1   2
M  END
$$$$
