
     RDKit          3D

 37 37  0  0  0  0  0  0  0  0999 V2000
   -0.7215    0.7729   -3.0133 S   0  0  0  0  0  2  0  0  0  0  0  0
   -2.7548    1.2672   -3.4627 Si  0  0  0  0  0  4  0  0  0  0  0  0
    0.6046    1.3772   -4.5894 Si  0  0  0  0  0  4  0  0  0  0  0  0
    0.5598    0.0003   -6.3083 Si  0  0  0  0  0  4  0  0  0  0  0  0
   -0.8680    0.5236   -7.8799 Si  0  0  0  0  0  4  0  0  0  0  0  0
   -4.8745    4.1487   -4.3664 Si  0  0  0  0  0  4  0  0  0  0  0  0
   -3.2200    3.3892   -3.0630 Si  0  0  0  0  0  4  0  0  0  0  0  0
   -1.4158    2.6730   -7.9017 Si  0  0  0  0  0  4  0  0  0  0  0  0
   -6.2949    2.5354   -4.9099 Si  0  0  0  0  0  4  0  0  0  0  0  0
   -3.0913    3.1179   -9.2584 Si  0  0  0  0  0  4  0  0  0  0  0  0
   -6.7614    2.5380   -7.0987 Si  0  0  0  0  0  4  0  0  0  0  0  0
   -4.3897    1.4162   -9.7058 Si  0  0  0  0  0  4  0  0  0  0  0  0
   -5.8016    0.8484   -8.1359 Si  0  0  0  0  0  4  0  0  0  0  0  0
   -3.0493    0.8683   -5.0498 F   0  0  0  0  0  0  0  0  0  0  0  0
   -3.7899    0.3105   -2.4998 F   0  0  0  0  0  0  0  0  0  0  0  0
    2.1748    1.3194   -3.9236 F   0  0  0  0  0  0  0  0  0  0  0  0
    0.3490    2.9836   -5.0211 F   0  0  0  0  0  0  0  0  0  0  0  0
   -0.1507    0.1803   -9.3929 F   0  0  0  0  0  0  0  0  0  0  0  0
   -2.2303   -0.4785   -7.7826 F   0  0  0  0  0  0  0  0  0  0  0  0
   -0.0229    3.5336   -8.3919 F   0  0  0  0  0  0  0  0  0  0  0  0
   -1.7990    3.2545   -6.3677 F   0  0  0  0  0  0  0  0  0  0  0  0
   -3.7163    3.5370   -1.4416 F   0  0  0  0  0  0  0  0  0  0  0  0
   -1.8545    4.3767   -3.3272 F   0  0  0  0  0  0  0  0  0  0  0  0
   -5.2755    1.7706  -11.1233 F   0  0  0  0  0  0  0  0  0  0  0  0
   -3.4265    0.0745  -10.0947 F   0  0  0  0  0  0  0  0  0  0  0  0
   -7.0243   -0.1049   -8.8600 F   0  0  0  0  0  0  0  0  0  0  0  0
   -5.1008   -0.1818   -6.9681 F   0  0  0  0  0  0  0  0  0  0  0  0
   -8.4639    2.4473   -7.2252 F   0  0  0  0  0  0  0  0  0  0  0  0
   -6.3487    4.0395   -7.7678 F   0  0  0  0  0  0  0  0  0  0  0  0
    2.1355   -0.1232   -6.9534 F   0  0  0  0  0  0  0  0  0  0  0  0
    0.1920   -1.5607   -5.7225 F   0  0  0  0  0  0  0  0  0  0  0  0
   -5.6726    5.3646   -3.4706 F   0  0  0  0  0  0  0  0  0  0  0  0
   -4.2118    4.9094   -5.7068 F   0  0  0  0  0  0  0  0  0  0  0  0
   -2.4304    3.6800  -10.7331 F   0  0  0  0  0  0  0  0  0  0  0  0
   -3.9970    4.4357   -8.6606 F   0  0  0  0  0  0  0  0  0  0  0  0
   -7.6852    2.7223   -3.9739 F   0  0  0  0  0  0  0  0  0  0  0  0
   -5.6219    1.0317   -4.4723 F   0  0  0  0  0  0  0  0  0  0  0  0
  1  2  1  0
  1  3  1  0
  2  7  1  0
  2 14  1  0
  2 15  1  0
  3  4  1  0
  3 16  1  0
  3 17  1  0
  4  5  1  0
  4 30  1  0
  4 31  1  0
  5  8  1  0
  5 18  1  0
  5 19  1  0
  6  7  1  0
  6  9  1  0
  6 32  1  0
  6 33  1  0
  7 22  1  0
  7 23  1  0
  8 10  1  0
  8 20  1  0
  8 21  1  0
  9 11  1  0
  9 36  1  0
  9 37  1  0
 10 12  1  0
 10 34  1  0
 10 35  1  0
 11 13  1  0
 11 28  1  0
 11 29  1  0
 12 13  1  0
 12 24  1  0
 12 25  1  0
 13 26  1  0
 13 27  1  0
M  CHG  1   1   1
M  RAD  1   1   2
M  END
$$$$

     RDKit          3D

 37 37  0  0  0  0  0  0  0  0999 V2000
   -0.7215    0.7729   -3.0133 S   0  0  0  0  0  2  0  0  0  0  0  0
   -1.8298    2.5727   -3.3493 Si  0  0  0  0  0  4  0  0  0  0  0  0
    0.1638    0.0409   -4.8266 Si  0  0  0  0  0  4  0  0  0  0  0  0
   -1.2883   -0.9933   -6.1206 Si  0  0  0  0  0  4  0  0  0  0  0  0
   -2.2723    0.2723   -7.6081 Si  0  0  0  0  0  4  0  0  0  0  0  0
   -1.4306    5.9737   -4.7230 Si  0  0  0  0  0  4  0  0  0  0  0  0
   -0.5344    4.3587   -3.4574 Si  0  0  0  0  0  4  0  0  0  0  0  0
   -1.1228    2.0993   -8.1190 Si  0  0  0  0  0  4  0  0  0  0  0  0
   -3.6465    5.9150   -4.6771 Si  0  0  0  0  0  4  0  0  0  0  0  0
   -2.2687    3.5172   -9.3530 Si  0  0  0  0  0  4  0  0  0  0  0  0
   -4.5268    6.0641   -6.7293 Si  0  0  0  0  0  4  0  0  0  0  0  0
   -4.4413    3.3180   -9.2056 Si  0  0  0  0  0  4  0  0  0  0  0  0
   -5.3590    4.1374   -7.3982 Si  0  0  0  0  0  4  0  0  0  0  0  0
   -2.7220    2.3832   -4.7396 F   0  0  0  0  0  0  0  0  0  0  0  0
   -2.9332    2.7990   -2.0666 F   0  0  0  0  0  0  0  0  0  0  0  0
    1.3319   -1.1058   -4.3439 F   0  0  0  0  0  0  0  0  0  0  0  0
    1.0150    1.2538   -5.6243 F   0  0  0  0  0  0  0  0  0  0  0  0
   -2.4396   -0.6271   -9.0519 F   0  0  0  0  0  0  0  0  0  0  0  0
   -3.8505    0.6331   -7.1094 F   0  0  0  0  0  0  0  0  0  0  0  0
    0.2726    1.5862   -8.9621 F   0  0  0  0  0  0  0  0  0  0  0  0
   -0.5620    2.9094   -6.7525 F   0  0  0  0  0  0  0  0  0  0  0  0
   -0.3311    4.9742   -1.8836 F   0  0  0  0  0  0  0  0  0  0  0  0
    0.9917    3.9705   -4.1129 F   0  0  0  0  0  0  0  0  0  0  0  0
   -5.1470    4.0824  -10.5610 F   0  0  0  0  0  0  0  0  0  0  0  0
   -4.8555    1.6782   -9.3412 F   0  0  0  0  0  0  0  0  0  0  0  0
   -7.0267    4.3515   -7.7163 F   0  0  0  0  0  0  0  0  0  0  0  0
   -5.3173    3.0412   -6.0895 F   0  0  0  0  0  0  0  0  0  0  0  0
   -5.7451    7.2603   -6.6416 F   0  0  0  0  0  0  0  0  0  0  0  0
   -3.3719    6.6883   -7.8012 F   0  0  0  0  0  0  0  0  0  0  0  0
   -0.5074   -2.3072   -6.8807 F   0  0  0  0  0  0  0  0  0  0  0  0
   -2.4775   -1.6979   -5.1184 F   0  0  0  0  0  0  0  0  0  0  0  0
   -0.8632    7.4538   -4.0864 F   0  0  0  0  0  0  0  0  0  0  0  0
   -0.8099    5.8606   -6.2774 F   0  0  0  0  0  0  0  0  0  0  0  0
   -1.8244    3.2618  -10.9855 F   0  0  0  0  0  0  0  0  0  0  0  0
   -1.7785    5.1175   -9.0170 F   0  0  0  0  0  0  0  0  0  0  0  0
   -4.1842    7.1595   -3.6740 F   0  0  0  0  0  0  0  0  0  0  0  0
   -4.1490    4.4598   -3.9457 F   0  0  0  0  0  0  0  0  0  0  0  0
  1  2  1  0
  1  3  1  0
  2  7  1  0
  2 14  1  0
  2 15  1  0
  3  4  1  0
  3 16  1  0
  3 17  1  0
  4  5  1  0
  4 30  1  0
  4 31  1  0
  5  8  1  0
  5 18  1  0
  5 19  1  0
  6  7  1  0
  6  9  1  0
  6 32  1  0
  6 33  1  0
  7 22  1  0
  7 23  1  0
  8 10  1  0
  8 20  1  0
  8 21  1  0
  9 11  1  0
  9 36  1  0
  9 37  1  0
 10 12  1  0
 10 34  1  0
 10 35  1  0
 11 13  1  0
 11 28  1  0
 11 29  1  0
 12 13  1  0
 12 24  1  0
 12 25  1  0
 13 26  1  0
 13 27  1  0
M  CHG  1   1   1
M  RAD  1   1   2
M  END
$$$$
