
     RDKit          3D

 37 37  0  0  0  0  0  0  0  0999 V2000
    0.0153   -0.1003   -3.2435 S   0  0  0  0  0  2  0  0  0  0  0  0
   -0.6745    1.5846   -4.3952 Si  0  0  0  0  0  4  0  0  0  0  0  0
    0.8091   -1.5782   -4.5348 Si  0  0  0  0  0  4  0  0  0  0  0  0
    0.0239   -3.6281   -4.0881 Si  0  0  0  0  0  4  0  0  0  0  0  0
    0.0988   -4.7636   -6.0444 Si  0  0  0  0  0  4  0  0  0  0  0  0
    1.9357    1.8004   -7.0059 Si  0  0  0  0  0  4  0  0  0  0  0  0
    0.9625    2.7489   -5.2750 Si  0  0  0  0  0  4  0  0  0  0  0  0
   -1.3614   -3.8377   -7.4126 Si  0  0  0  0  0  4  0  0  0  0  0  0
    0.5452    1.3156   -8.6477 Si  0  0  0  0  0  4  0  0  0  0  0  0
   -0.7254   -3.6594   -9.4886 Si  0  0  0  0  0  4  0  0  0  0  0  0
    1.4249    0.0040  -10.1795 Si  0  0  0  0  0  4  0  0  0  0  0  0
    1.4254   -3.6828   -9.8608 Si  0  0  0  0  0  4  0  0  0  0  0  0
    2.4621   -1.7615   -9.4130 Si  0  0  0  0  0  4  0  0  0  0  0  0
   -1.5463    2.5871   -3.3347 F   0  0  0  0  0  0  0  0  0  0  0  0
   -1.7715    1.0158   -5.5358 F   0  0  0  0  0  0  0  0  0  0  0  0
    0.3566   -1.2119   -6.1095 F   0  0  0  0  0  0  0  0  0  0  0  0
    2.4833   -1.6382   -4.3599 F   0  0  0  0  0  0  0  0  0  0  0  0
   -0.2703   -6.3938   -5.7750 F   0  0  0  0  0  0  0  0  0  0  0  0
    1.6759   -4.6785   -6.5750 F   0  0  0  0  0  0  0  0  0  0  0  0
   -1.8280   -2.2967   -6.8396 F   0  0  0  0  0  0  0  0  0  0  0  0
   -2.7926   -4.7718   -7.3387 F   0  0  0  0  0  0  0  0  0  0  0  0
    0.3678    4.3001   -5.6694 F   0  0  0  0  0  0  0  0  0  0  0  0
    2.1454    3.0057   -4.0807 F   0  0  0  0  0  0  0  0  0  0  0  0
    1.6781   -3.9908  -11.5254 F   0  0  0  0  0  0  0  0  0  0  0  0
    2.2313   -4.9220   -9.0455 F   0  0  0  0  0  0  0  0  0  0  0  0
    3.9857   -1.8645  -10.1895 F   0  0  0  0  0  0  0  0  0  0  0  0
    2.7913   -1.7216   -7.7701 F   0  0  0  0  0  0  0  0  0  0  0  0
    0.1735   -0.5044  -11.2237 F   0  0  0  0  0  0  0  0  0  0  0  0
    2.4519    0.9591  -11.1561 F   0  0  0  0  0  0  0  0  0  0  0  0
    1.0694   -4.4391   -3.0348 F   0  0  0  0  0  0  0  0  0  0  0  0
   -1.5238   -3.5896   -3.4762 F   0  0  0  0  0  0  0  0  0  0  0  0
    3.0876    2.9062   -7.6181 F   0  0  0  0  0  0  0  0  0  0  0  0
    2.8158    0.4671   -6.4699 F   0  0  0  0  0  0  0  0  0  0  0  0
   -1.3707   -2.2281  -10.1603 F   0  0  0  0  0  0  0  0  0  0  0  0
   -1.4360   -4.9208  -10.4008 F   0  0  0  0  0  0  0  0  0  0  0  0
   -0.9019    0.6485   -8.1092 F   0  0  0  0  0  0  0  0  0  0  0  0
    0.1259    2.7866   -9.4105 F   0  0  0  0  0  0  0  0  0  0  0  0
  1  2  1  0
  1  3  1  0
  2  7  1  0
  2 14  1  0
  2 15  1  0
  3  4  1  0
  3 16  1  0
  3 17  1  0
  4  5  1  0
  4 30  1  0
  4 31  1  0
  5  8  1  0
  5 18  1  0
  5 19  1  0
  6  7  1  0
  6  9  1  0
  6 32  1  0
  6 33  1  0
  7 22  1  0
  7 23  1  0
  8 10  1  0
  8 20  1  0
  8 21  1  0
  9 11  1  0
  9 36  1  0
  9 37  1  0
 10 12  1  0
 10 34  1  0
 10 35  1  0
 11 13  1  0
 11 28  1  0
 11 29  1  0
 12 13  1  0
 12 24  1  0
 12 25  1  0
 13 26  1  0
 13 27  1  0
M  CHG  1   1   1
M  RAD  1   1   2
M  END
$$$$

     RDKit          3D

 37 37  0  0  0  0  0  0  0  0999 V2000
    0.0153   -0.1003   -3.2435 S   0  0  0  0  0  2  0  0  0  0  0  0
    1.7409   -0.0090   -4.4490 Si  0  0  0  0  0  4  0  0  0  0  0  0
   -1.7032   -0.8565   -4.2087 Si  0  0  0  0  0  4  0  0  0  0  0  0
   -3.1365    0.7714   -4.7853 Si  0  0  0  0  0  4  0  0  0  0  0  0
   -3.0257    1.2093   -6.9595 Si  0  0  0  0  0  4  0  0  0  0  0  0
    1.4891   -3.4396   -5.5594 Si  0  0  0  0  0  4  0  0  0  0  0  0
    1.6398   -1.3570   -6.2315 Si  0  0  0  0  0  4  0  0  0  0  0  0
   -3.5552   -0.5453   -8.2166 Si  0  0  0  0  0  4  0  0  0  0  0  0
    0.8484   -4.8866   -7.0813 Si  0  0  0  0  0  4  0  0  0  0  0  0
   -4.3958   -2.2155   -7.0715 Si  0  0  0  0  0  4  0  0  0  0  0  0
    0.0323   -4.0447   -8.9255 Si  0  0  0  0  0  4  0  0  0  0  0  0
   -3.3546   -4.1502   -7.3696 Si  0  0  0  0  0  4  0  0  0  0  0  0
   -2.1557   -4.3069   -9.1704 Si  0  0  0  0  0  4  0  0  0  0  0  0
    1.8997    1.5836   -5.0429 F   0  0  0  0  0  0  0  0  0  0  0  0
    3.1644   -0.3062   -3.5599 F   0  0  0  0  0  0  0  0  0  0  0  0
   -2.4594   -1.9384   -3.1234 F   0  0  0  0  0  0  0  0  0  0  0  0
   -1.3791   -1.7204   -5.6012 F   0  0  0  0  0  0  0  0  0  0  0  0
   -4.0434    2.5301   -7.2603 F   0  0  0  0  0  0  0  0  0  0  0  0
   -1.4431    1.7576   -7.2846 F   0  0  0  0  0  0  0  0  0  0  0  0
   -2.1775   -0.9733   -9.0924 F   0  0  0  0  0  0  0  0  0  0  0  0
   -4.6785    0.0064   -9.3832 F   0  0  0  0  0  0  0  0  0  0  0  0
    0.4049   -0.8052   -7.1700 F   0  0  0  0  0  0  0  0  0  0  0  0
    3.0986   -1.1516   -7.0821 F   0  0  0  0  0  0  0  0  0  0  0  0
   -2.4834   -4.5013   -5.9422 F   0  0  0  0  0  0  0  0  0  0  0  0
   -4.5574   -5.3453   -7.4128 F   0  0  0  0  0  0  0  0  0  0  0  0
   -2.4156   -5.8082   -9.9041 F   0  0  0  0  0  0  0  0  0  0  0  0
   -2.6961   -3.1533  -10.3085 F   0  0  0  0  0  0  0  0  0  0  0  0
    0.4490   -2.4089   -9.1482 F   0  0  0  0  0  0  0  0  0  0  0  0
    0.7531   -4.8062  -10.2579 F   0  0  0  0  0  0  0  0  0  0  0  0
   -4.6873    0.4544   -4.2595 F   0  0  0  0  0  0  0  0  0  0  0  0
   -2.6115    2.1768   -3.9731 F   0  0  0  0  0  0  0  0  0  0  0  0
    3.0404   -3.8551   -4.9693 F   0  0  0  0  0  0  0  0  0  0  0  0
    0.5147   -3.5382   -4.1548 F   0  0  0  0  0  0  0  0  0  0  0  0
   -4.3731   -1.7883   -5.4266 F   0  0  0  0  0  0  0  0  0  0  0  0
   -6.0605   -2.3465   -7.4456 F   0  0  0  0  0  0  0  0  0  0  0  0
   -0.3355   -5.9026   -6.3821 F   0  0  0  0  0  0  0  0  0  0  0  0
    2.1335   -5.9390   -7.4256 F   0  0  0  0  0  0  0  0  0  0  0  0
  1  2  1  0
  1  3  1  0
  2  7  1  0
  2 14  1  0
  2 15  1  0
  3  4  1  0
  3 16  1  0
  3 17  1  0
  4  5  1  0
  4 30  1  0
  4 31  1  0
  5  8  1  0
  5 18  1  0
  5 19  1  0
  6  7  1  0
  6  9  1  0
  6 32  1  0
  6 33  1  0
  7 22  1  0
  7 23  1  0
  8 10  1  0
  8 20  1  0
  8 21  1  0
  9 11  1  0
  9 36  1  0
  9 37  1  0
 10 12  1  0
 10 34  1  0
 10 35  1  0
 11 13  1  0
 11 28  1  0
 11 29  1  0
 12 13  1  0
 12 24  1  0
 12 25  1  0
 13 26  1  0
 13 27  1  0
M  CHG  1   1   1
M  RAD  1   1   2
M  END
$$$$

     RDKit          3D

 37 37  0  0  0  0  0  0  0  0999 V2000
    0.0153   -0.1003   -3.2435 S   0  0  0  0  0  2  0  0  0  0  0  0
    0.4634    1.5292   -4.5018 Si  0  0  0  0  0  4  0  0  0  0  0  0
    0.1478   -1.9956   -4.1638 Si  0  0  0  0  0  4  0  0  0  0  0  0
   -1.8713   -2.8333   -4.6725 Si  0  0  0  0  0  4  0  0  0  0  0  0
   -2.2993   -2.6413   -6.8431 Si  0  0  0  0  0  4  0  0  0  0  0  0
    3.5981    0.1431   -5.6500 Si  0  0  0  0  0  4  0  0  0  0  0  0
    1.6633    0.9481   -6.2983 Si  0  0  0  0  0  4  0  0  0  0  0  0
   -0.8427   -3.7464   -8.1064 Si  0  0  0  0  0  4  0  0  0  0  0  0
    4.7216   -0.9736   -7.1703 Si  0  0  0  0  0  4  0  0  0  0  0  0
    0.4884   -5.0565   -6.9579 Si  0  0  0  0  0  4  0  0  0  0  0  0
    3.6174   -1.5170   -8.9760 Si  0  0  0  0  0  4  0  0  0  0  0  0
    2.6493   -4.7119   -7.3150 Si  0  0  0  0  0  4  0  0  0  0  0  0
    3.1464   -3.6762   -9.1550 Si  0  0  0  0  0  4  0  0  0  0  0  0
   -1.0037    2.1838   -5.0788 F   0  0  0  0  0  0  0  0  0  0  0  0
    1.2288    2.8000   -3.6624 F   0  0  0  0  0  0  0  0  0  0  0  0
    0.9490   -3.0355   -3.0698 F   0  0  0  0  0  0  0  0  0  0  0  0
    1.0377   -2.0069   -5.5776 F   0  0  0  0  0  0  0  0  0  0  0  0
   -3.8864   -3.1794   -7.0935 F   0  0  0  0  0  0  0  0  0  0  0  0
   -2.3094   -0.9753   -7.2108 F   0  0  0  0  0  0  0  0  0  0  0  0
   -0.0095   -2.6068   -9.0311 F   0  0  0  0  0  0  0  0  0  0  0  0
   -1.7572   -4.6576   -9.2292 F   0  0  0  0  0  0  0  0  0  0  0  0
    0.7177   -0.0627   -7.1896 F   0  0  0  0  0  0  0  0  0  0  0  0
    1.9249    2.3718   -7.1919 F   0  0  0  0  0  0  0  0  0  0  0  0
    3.2982   -3.9668   -5.9209 F   0  0  0  0  0  0  0  0  0  0  0  0
    3.3859   -6.2395   -7.3362 F   0  0  0  0  0  0  0  0  0  0  0  0
    4.4638   -4.4306   -9.9003 F   0  0  0  0  0  0  0  0  0  0  0  0
    1.8537   -3.8394  -10.2596 F   0  0  0  0  0  0  0  0  0  0  0  0
    2.2019   -0.5951   -9.1897 F   0  0  0  0  0  0  0  0  0  0  0  0
    4.5411   -1.1186  -10.3409 F   0  0  0  0  0  0  0  0  0  0  0  0
   -2.0648   -4.3886   -4.1022 F   0  0  0  0  0  0  0  0  0  0  0  0
   -3.0097   -1.8577   -3.8585 F   0  0  0  0  0  0  0  0  0  0  0  0
    4.5100    1.4884   -5.1151 F   0  0  0  0  0  0  0  0  0  0  0  0
    3.4063   -0.7739   -4.2167 F   0  0  0  0  0  0  0  0  0  0  0  0
    0.1302   -4.8536   -5.3089 F   0  0  0  0  0  0  0  0  0  0  0  0
    0.0611   -6.6819   -7.2807 F   0  0  0  0  0  0  0  0  0  0  0  0
    5.3123   -2.4060   -6.4477 F   0  0  0  0  0  0  0  0  0  0  0  0
    6.1271   -0.1116   -7.5694 F   0  0  0  0  0  0  0  0  0  0  0  0
  1  2  1  0
  1  3  1  0
  2  7  1  0
  2 14  1  0
  2 15  1  0
  3  4  1  0
  3 16  1  0
  3 17  1  0
  4  5  1  0
  4 30  1  0
  4 31  1  0
  5  8  1  0
  5 18  1  0
  5 19  1  0
  6  7  1  0
  6  9  1  0
  6 32  1  0
  6 33  1  0
  7 22  1  0
  7 23  1  0
  8 10  1  0
  8 20  1  0
  8 21  1  0
  9 11  1  0
  9 36  1  0
  9 37  1  0
 10 12  1  0
 10 34  1  0
 10 35  1  0
 11 13  1  0
 11 28  1  0
 11 29  1  0
 12 13  1  0
 12 24  1  0
 12 25  1  0
 13 26  1  0
 13 27  1  0
M  CHG  1   1   1
M  RAD  1   1   2
M  END
$$$$

     RDKit          3D

 37 37  0  0  0  0  0  0  0  0999 V2000
    0.0153   -0.1003   -3.2435 S   0  0  0  0  0  2  0  0  0  0  0  0
   -0.9673   -1.5444   -4.4216 Si  0  0  0  0  0  4  0  0  0  0  0  0
    0.5506    1.6665   -4.2676 Si  0  0  0  0  0  4  0  0  0  0  0  0
    2.7360    1.7223   -4.7755 Si  0  0  0  0  0  4  0  0  0  0  0  0
    3.0758    1.2675   -6.9224 Si  0  0  0  0  0  4  0  0  0  0  0  0
   -3.4239    0.7715   -5.7130 Si  0  0  0  0  0  4  0  0  0  0  0  0
   -1.8871   -0.6899   -6.2733 Si  0  0  0  0  0  4  0  0  0  0  0  0
    2.0958    2.7327   -8.2758 Si  0  0  0  0  0  4  0  0  0  0  0  0
   -4.0869    2.1172   -7.3161 Si  0  0  0  0  0  4  0  0  0  0  0  0
    1.2992    4.4873   -7.2299 Si  0  0  0  0  0  4  0  0  0  0  0  0
   -2.8587    2.1382   -9.1234 Si  0  0  0  0  0  4  0  0  0  0  0  0
   -0.8462    4.8917   -7.6162 Si  0  0  0  0  0  4  0  0  0  0  0  0
   -1.6676    3.9866   -9.4081 Si  0  0  0  0  0  4  0  0  0  0  0  0
    0.1829   -2.6989   -4.9295 F   0  0  0  0  0  0  0  0  0  0  0  0
   -2.1279   -2.4203   -3.5322 F   0  0  0  0  0  0  0  0  0  0  0  0
    0.1574    2.9816   -3.2496 F   0  0  0  0  0  0  0  0  0  0  0  0
   -0.2769    1.9026   -5.6994 F   0  0  0  0  0  0  0  0  0  0  0  0
    4.7515    1.2073   -7.1659 F   0  0  0  0  0  0  0  0  0  0  0  0
    2.5082   -0.3175   -7.1992 F   0  0  0  0  0  0  0  0  0  0  0  0
    0.9212    1.9000   -9.1561 F   0  0  0  0  0  0  0  0  0  0  0  0
    3.2722    3.2037   -9.4255 F   0  0  0  0  0  0  0  0  0  0  0  0
   -0.6475   -0.1229   -7.1966 F   0  0  0  0  0  0  0  0  0  0  0  0
   -2.6242   -1.9846   -7.0943 F   0  0  0  0  0  0  0  0  0  0  0  0
   -1.7164    4.5002   -6.1987 F   0  0  0  0  0  0  0  0  0  0  0  0
   -1.0071    6.5759   -7.7363 F   0  0  0  0  0  0  0  0  0  0  0  0
   -2.6397    5.1054  -10.2224 F   0  0  0  0  0  0  0  0  0  0  0  0
   -0.3960    3.6274  -10.4907 F   0  0  0  0  0  0  0  0  0  0  0  0
   -1.8504    0.7725   -9.2552 F   0  0  0  0  0  0  0  0  0  0  0  0
   -3.8601    2.0052  -10.4851 F   0  0  0  0  0  0  0  0  0  0  0  0
    3.4558    3.1449   -4.2858 F   0  0  0  0  0  0  0  0  0  0  0  0
    3.4635    0.4622   -3.8847 F   0  0  0  0  0  0  0  0  0  0  0  0
   -4.7471   -0.1412   -5.1267 F   0  0  0  0  0  0  0  0  0  0  0  0
   -2.9293    1.6475   -4.3273 F   0  0  0  0  0  0  0  0  0  0  0  0
    1.5611    4.2697   -5.5647 F   0  0  0  0  0  0  0  0  0  0  0  0
    2.2645    5.8424   -7.6304 F   0  0  0  0  0  0  0  0  0  0  0  0
   -4.1457    3.7051   -6.6854 F   0  0  0  0  0  0  0  0  0  0  0  0
   -5.7033    1.7733   -7.6995 F   0  0  0  0  0  0  0  0  0  0  0  0
  1  2  1  0
  1  3  1  0
  2  7  1  0
  2 14  1  0
  2 15  1  0
  3  4  1  0
  3 16  1  0
  3 17  1  0
  4  5  1  0
  4 30  1  0
  4 31  1  0
  5  8  1  0
  5 18  1  0
  5 19  1  0
  6  7  1  0
  6  9  1  0
  6 32  1  0
  6 33  1  0
  7 22  1  0
  7 23  1  0
  8 10  1  0
  8 20  1  0
  8 21  1  0
  9 11  1  0
  9 36  1  0
  9 37  1  0
 10 12  1  0
 10 34  1  0
 10 35  1  0
 11 13  1  0
 11 28  1  0
 11 29  1  0
 12 13  1  0
 12 24  1  0
 12 25  1  0
 13 26  1  0
 13 27  1  0
M  CHG  1   1   1
M  RAD  1   1   2
M  END
$$$$
