
     RDKit          3D

 37 37  0  0  0  0  0  0  0  0999 V2000
    0.1206    0.0730    3.1886 S   0  0  0  0  0  2  0  0  0  0  0  0
    1.6506   -0.9384    4.2686 Si  0  0  0  0  0  4  0  0  0  0  0  0
   -0.6477    1.7676    4.2194 Si  0  0  0  0  0  4  0  0  0  0  0  0
   -2.4445    1.3030    5.4236 Si  0  0  0  0  0  4  0  0  0  0  0  0
   -2.0075    0.5969    7.4533 Si  0  0  0  0  0  4  0  0  0  0  0  0
    4.4384   -0.2877    6.6041 Si  0  0  0  0  0  4  0  0  0  0  0  0
    2.6608    0.5689    5.5811 Si  0  0  0  0  0  4  0  0  0  0  0  0
   -1.1962    2.1257    8.8257 Si  0  0  0  0  0  4  0  0  0  0  0  0
    4.4226    0.3058    8.7842 Si  0  0  0  0  0  4  0  0  0  0  0  0
   -0.1975    1.0407   10.4744 Si  0  0  0  0  0  4  0  0  0  0  0  0
    3.8115    2.3821    8.9525 Si  0  0  0  0  0  4  0  0  0  0  0  0
    1.2191    2.1663   11.6780 Si  0  0  0  0  0  4  0  0  0  0  0  0
    2.9760    3.0394   10.8587 Si  0  0  0  0  0  4  0  0  0  0  0  0
    0.9518   -2.0931    5.2852 F   0  0  0  0  0  0  0  0  0  0  0  0
    2.7411   -1.6192    3.2039 F   0  0  0  0  0  0  0  0  0  0  0  0
   -1.1313    2.8834    3.0153 F   0  0  0  0  0  0  0  0  0  0  0  0
    0.5375    2.5629    5.1195 F   0  0  0  0  0  0  0  0  0  0  0  0
   -3.4480    0.0028    8.1244 F   0  0  0  0  0  0  0  0  0  0  0  0
   -0.9391   -0.7217    7.3844 F   0  0  0  0  0  0  0  0  0  0  0  0
   -2.5336    3.0229    9.4004 F   0  0  0  0  0  0  0  0  0  0  0  0
   -0.2094    3.2427    8.0832 F   0  0  0  0  0  0  0  0  0  0  0  0
    1.5170    0.8902    6.7763 F   0  0  0  0  0  0  0  0  0  0  0  0
    3.0358    1.9721    4.7355 F   0  0  0  0  0  0  0  0  0  0  0  0
    1.6552    1.0868   12.9444 F   0  0  0  0  0  0  0  0  0  0  0  0
    0.3038    3.3511   12.5202 F   0  0  0  0  0  0  0  0  0  0  0  0
    4.2686    2.9776   11.9868 F   0  0  0  0  0  0  0  0  0  0  0  0
    2.7513    4.7328   10.6633 F   0  0  0  0  0  0  0  0  0  0  0  0
    2.7766    2.9058    7.7015 F   0  0  0  0  0  0  0  0  0  0  0  0
    5.2136    3.3081    8.6907 F   0  0  0  0  0  0  0  0  0  0  0  0
   -3.2943    0.0779    4.6285 F   0  0  0  0  0  0  0  0  0  0  0  0
   -3.5050    2.6365    5.5146 F   0  0  0  0  0  0  0  0  0  0  0  0
    4.3549   -1.9598    6.5093 F   0  0  0  0  0  0  0  0  0  0  0  0
    5.8827    0.3011    5.9605 F   0  0  0  0  0  0  0  0  0  0  0  0
   -1.4377    0.5257   11.5147 F   0  0  0  0  0  0  0  0  0  0  0  0
    0.5061   -0.4109    9.9496 F   0  0  0  0  0  0  0  0  0  0  0  0
    3.4566   -0.8006    9.5701 F   0  0  0  0  0  0  0  0  0  0  0  0
    6.0044    0.1079    9.3388 F   0  0  0  0  0  0  0  0  0  0  0  0
  1  2  1  0
  1  3  1  0
  2  7  1  0
  2 14  1  0
  2 15  1  0
  3  4  1  0
  3 16  1  0
  3 17  1  0
  4  5  1  0
  4 30  1  0
  4 31  1  0
  5  8  1  0
  5 18  1  0
  5 19  1  0
  6  7  1  0
  6  9  1  0
  6 32  1  0
  6 33  1  0
  7 22  1  0
  7 23  1  0
  8 10  1  0
  8 20  1  0
  8 21  1  0
  9 11  1  0
  9 36  1  0
  9 37  1  0
 10 12  1  0
 10 34  1  0
 10 35  1  0
 11 13  1  0
 11 28  1  0
 11 29  1  0
 12 13  1  0
 12 24  1  0
 12 25  1  0
 13 26  1  0
 13 27  1  0
M  CHG  1   1   1
M  RAD  1   1   2
M  END
$$$$

     RDKit          3D

 37 37  0  0  0  0  0  0  0  0999 V2000
    0.1206    0.0730    3.1886 S   0  0  0  0  0  2  0  0  0  0  0  0
   -1.7036    0.1514    4.2825 Si  0  0  0  0  0  4  0  0  0  0  0  0
    1.6876   -0.8998    4.2478 Si  0  0  0  0  0  4  0  0  0  0  0  0
    2.9647    0.5064    5.3819 Si  0  0  0  0  0  4  0  0  0  0  0  0
    2.2350    0.9536    7.4010 Si  0  0  0  0  0  4  0  0  0  0  0  0
   -3.6852   -1.7924    6.7206 Si  0  0  0  0  0  4  0  0  0  0  0  0
   -1.7348   -1.6051    5.6713 Si  0  0  0  0  0  4  0  0  0  0  0  0
    2.3836   -0.7118    8.8443 Si  0  0  0  0  0  4  0  0  0  0  0  0
   -3.3339   -2.1916    8.9166 Si  0  0  0  0  0  4  0  0  0  0  0  0
    0.9732   -0.2624   10.4879 Si  0  0  0  0  0  4  0  0  0  0  0  0
   -1.7021   -3.6073    9.1309 Si  0  0  0  0  0  4  0  0  0  0  0  0
    0.3933   -1.9196   11.7685 Si  0  0  0  0  0  4  0  0  0  0  0  0
   -0.6274   -3.6324   11.0303 Si  0  0  0  0  0  4  0  0  0  0  0  0
   -1.7250    1.5428    5.2410 F   0  0  0  0  0  0  0  0  0  0  0  0
   -2.9985    0.0955    3.2307 F   0  0  0  0  0  0  0  0  0  0  0  0
    2.6840   -1.6325    3.0650 F   0  0  0  0  0  0  0  0  0  0  0  0
    1.1228   -2.1675    5.2077 F   0  0  0  0  0  0  0  0  0  0  0  0
    3.1372    2.2553    8.0093 F   0  0  0  0  0  0  0  0  0  0  0  0
    0.6251    1.4896    7.3236 F   0  0  0  0  0  0  0  0  0  0  0  0
    3.9987   -0.7268    9.4058 F   0  0  0  0  0  0  0  0  0  0  0  0
    2.1442   -2.2142    8.1672 F   0  0  0  0  0  0  0  0  0  0  0  0
   -0.5868   -1.2120    6.8407 F   0  0  0  0  0  0  0  0  0  0  0  0
   -1.3053   -3.0251    4.8816 F   0  0  0  0  0  0  0  0  0  0  0  0
   -0.5430   -1.1894   13.0133 F   0  0  0  0  0  0  0  0  0  0  0  0
    1.8090   -2.3920   12.6189 F   0  0  0  0  0  0  0  0  0  0  0  0
   -1.7410   -4.2254   12.1946 F   0  0  0  0  0  0  0  0  0  0  0  0
    0.4696   -4.9479   10.8810 F   0  0  0  0  0  0  0  0  0  0  0  0
   -0.5590   -3.5472    7.8659 F   0  0  0  0  0  0  0  0  0  0  0  0
   -2.3900   -5.1508    8.9406 F   0  0  0  0  0  0  0  0  0  0  0  0
    3.0168    1.9610    4.5237 F   0  0  0  0  0  0  0  0  0  0  0  0
    4.5761   -0.0455    5.4822 F   0  0  0  0  0  0  0  0  0  0  0  0
   -4.5134   -0.3419    6.5714 F   0  0  0  0  0  0  0  0  0  0  0  0
   -4.5933   -3.0906    6.1397 F   0  0  0  0  0  0  0  0  0  0  0  0
    1.7522    0.8809   11.4737 F   0  0  0  0  0  0  0  0  0  0  0  0
   -0.4044    0.5619    9.9398 F   0  0  0  0  0  0  0  0  0  0  0  0
   -3.1060   -0.7075    9.6381 F   0  0  0  0  0  0  0  0  0  0  0  0
   -4.7696   -2.8493    9.5126 F   0  0  0  0  0  0  0  0  0  0  0  0
  1  2  1  0
  1  3  1  0
  2  7  1  0
  2 14  1  0
  2 15  1  0
  3  4  1  0
  3 16  1  0
  3 17  1  0
  4  5  1  0
  4 30  1  0
  4 31  1  0
  5  8  1  0
  5 18  1  0
  5 19  1  0
  6  7  1  0
  6  9  1  0
  6 32  1  0
  6 33  1  0
  7 22  1  0
  7 23  1  0
  8 10  1  0
  8 20  1  0
  8 21  1  0
  9 11  1  0
  9 36  1  0
  9 37  1  0
 10 12  1  0
 10 34  1  0
 10 35  1  0
 11 13  1  0
 11 28  1  0
 11 29  1  0
 12 13  1  0
 12 24  1  0
 12 25  1  0
 13 26  1  0
 13 27  1  0
M  CHG  1   1   1
M  RAD  1   1   2
M  END
$$$$

     RDKit          3D

 37 37  0  0  0  0  0  0  0  0999 V2000
    0.1206    0.0730    3.1886 S   0  0  0  0  0  2  0  0  0  0  0  0
    1.4783    1.3432    4.2249 Si  0  0  0  0  0  4  0  0  0  0  0  0
   -1.6736   -0.2909    4.2714 Si  0  0  0  0  0  4  0  0  0  0  0  0
   -1.5896   -2.1399    5.4832 Si  0  0  0  0  0  4  0  0  0  0  0  0
   -0.7477   -1.8617    7.4890 Si  0  0  0  0  0  4  0  0  0  0  0  0
    1.5328    4.2178    6.5450 Si  0  0  0  0  0  4  0  0  0  0  0  0
    0.2722    2.6720    5.5645 Si  0  0  0  0  0  4  0  0  0  0  0  0
   -2.0176   -0.7216    8.8913 Si  0  0  0  0  0  4  0  0  0  0  0  0
    1.0115    4.3466    8.7398 Si  0  0  0  0  0  4  0  0  0  0  0  0
   -0.6913    0.0172   10.5001 Si  0  0  0  0  0  4  0  0  0  0  0  0
   -1.1434    4.2169    8.9686 Si  0  0  0  0  0  4  0  0  0  0  0  0
   -1.4377    1.6560   11.7165 Si  0  0  0  0  0  4  0  0  0  0  0  0
   -1.9178    3.5596   10.9004 Si  0  0  0  0  0  4  0  0  0  0  0  0
    2.4751    0.4087    5.2190 F   0  0  0  0  0  0  0  0  0  0  0  0
    2.3560    2.2480    3.1307 F   0  0  0  0  0  0  0  0  0  0  0  0
   -2.9023   -0.5185    3.1022 F   0  0  0  0  0  0  0  0  0  0  0  0
   -2.1583    1.0469    5.1784 F   0  0  0  0  0  0  0  0  0  0  0  0
   -0.4726   -3.3952    8.1606 F   0  0  0  0  0  0  0  0  0  0  0  0
    0.7741   -1.1162    7.3741 F   0  0  0  0  0  0  0  0  0  0  0  0
   -3.1750   -1.8211    9.5040 F   0  0  0  0  0  0  0  0  0  0  0  0
   -2.9056    0.4865    8.1669 F   0  0  0  0  0  0  0  0  0  0  0  0
   -0.2637    1.6354    6.7804 F   0  0  0  0  0  0  0  0  0  0  0  0
   -1.0345    3.3474    4.7514 F   0  0  0  0  0  0  0  0  0  0  0  0
   -0.2532    1.8458   12.9496 F   0  0  0  0  0  0  0  0  0  0  0  0
   -2.7734    1.0337   12.5992 F   0  0  0  0  0  0  0  0  0  0  0  0
   -1.5372    4.8113   12.0119 F   0  0  0  0  0  0  0  0  0  0  0  0
   -3.6234    3.7188   10.7514 F   0  0  0  0  0  0  0  0  0  0  0  0
   -1.9199    3.3192    7.7432 F   0  0  0  0  0  0  0  0  0  0  0  0
   -1.7391    5.7894    8.7151 F   0  0  0  0  0  0  0  0  0  0  0  0
   -0.6083   -3.2466    4.6663 F   0  0  0  0  0  0  0  0  0  0  0  0
   -3.1236   -2.8743    5.6206 F   0  0  0  0  0  0  0  0  0  0  0  0
    3.1406    3.7615    6.4080 F   0  0  0  0  0  0  0  0  0  0  0  0
    1.2645    5.7541    5.9007 F   0  0  0  0  0  0  0  0  0  0  0  0
   -0.4382   -1.3015   11.5406 F   0  0  0  0  0  0  0  0  0  0  0  0
    0.8658    0.3751    9.9300 F   0  0  0  0  0  0  0  0  0  0  0  0
    1.8951    3.1614    9.5076 F   0  0  0  0  0  0  0  0  0  0  0  0
    1.5735    5.8467    9.2713 F   0  0  0  0  0  0  0  0  0  0  0  0
  1  2  1  0
  1  3  1  0
  2  7  1  0
  2 14  1  0
  2 15  1  0
  3  4  1  0
  3 16  1  0
  3 17  1  0
  4  5  1  0
  4 30  1  0
  4 31  1  0
  5  8  1  0
  5 18  1  0
  5 19  1  0
  6  7  1  0
  6  9  1  0
  6 32  1  0
  6 33  1  0
  7 22  1  0
  7 23  1  0
  8 10  1  0
  8 20  1  0
  8 21  1  0
  9 11  1  0
  9 36  1  0
  9 37  1  0
 10 12  1  0
 10 34  1  0
 10 35  1  0
 11 13  1  0
 11 28  1  0
 11 29  1  0
 12 13  1  0
 12 24  1  0
 12 25  1  0
 13 26  1  0
 13 27  1  0
M  CHG  1   1   1
M  RAD  1   1   2
M  END
$$$$
