
     RDKit          3D

 37 37  0  0  0  0  0  0  0  0999 V2000
    0.0327    0.0596   -3.1309 S   0  0  0  0  0  2  0  0  0  0  0  0
   -0.3197   -1.9141   -3.8411 Si  0  0  0  0  0  4  0  0  0  0  0  0
   -1.4360    1.4497   -3.8444 Si  0  0  0  0  0  4  0  0  0  0  0  0
   -1.9000    1.0549   -5.9772 Si  0  0  0  0  0  4  0  0  0  0  0  0
   -2.8342    2.8559   -6.9549 Si  0  0  0  0  0  4  0  0  0  0  0  0
    2.7722   -0.9278   -5.5404 Si  0  0  0  0  0  4  0  0  0  0  0  0
    1.0559   -2.2798   -5.5912 Si  0  0  0  0  0  4  0  0  0  0  0  0
   -3.2881    2.2920   -9.0704 Si  0  0  0  0  0  4  0  0  0  0  0  0
    3.1564    0.1854   -7.3957 Si  0  0  0  0  0  4  0  0  0  0  0  0
   -1.8121    0.7408   -9.7605 Si  0  0  0  0  0  4  0  0  0  0  0  0
    2.6447   -0.8572   -9.2411 Si  0  0  0  0  0  4  0  0  0  0  0  0
    0.1428    1.7597  -10.1189 Si  0  0  0  0  0  4  0  0  0  0  0  0
    1.7095    0.3775  -10.7961 Si  0  0  0  0  0  4  0  0  0  0  0  0
   -1.9283   -2.0983   -4.2995 F   0  0  0  0  0  0  0  0  0  0  0  0
   -0.0074   -3.0280   -2.6126 F   0  0  0  0  0  0  0  0  0  0  0  0
   -2.8569    1.3141   -2.9498 F   0  0  0  0  0  0  0  0  0  0  0  0
   -0.8265    3.0381   -3.7382 F   0  0  0  0  0  0  0  0  0  0  0  0
   -1.7283    4.1415   -6.8982 F   0  0  0  0  0  0  0  0  0  0  0  0
   -4.2368    3.2191   -6.0979 F   0  0  0  0  0  0  0  0  0  0  0  0
   -3.2284    3.6507  -10.0672 F   0  0  0  0  0  0  0  0  0  0  0  0
   -4.8326    1.5932   -9.0777 F   0  0  0  0  0  0  0  0  0  0  0  0
    1.5608   -3.9047   -5.4517 F   0  0  0  0  0  0  0  0  0  0  0  0
    0.1243   -2.1742   -6.9705 F   0  0  0  0  0  0  0  0  0  0  0  0
    0.5759    2.7109   -8.8252 F   0  0  0  0  0  0  0  0  0  0  0  0
   -0.1499    2.8402  -11.4163 F   0  0  0  0  0  0  0  0  0  0  0  0
    2.9304    1.2926  -11.5626 F   0  0  0  0  0  0  0  0  0  0  0  0
    1.0618   -0.6349  -11.9816 F   0  0  0  0  0  0  0  0  0  0  0  0
    4.0810   -1.4941   -9.9266 F   0  0  0  0  0  0  0  0  0  0  0  0
    1.6763   -2.2374   -8.9923 F   0  0  0  0  0  0  0  0  0  0  0  0
   -0.4489    0.7645   -6.7852 F   0  0  0  0  0  0  0  0  0  0  0  0
   -2.9324   -0.2391   -6.1767 F   0  0  0  0  0  0  0  0  0  0  0  0
    4.1616   -1.8102   -5.0864 F   0  0  0  0  0  0  0  0  0  0  0  0
    2.5349    0.2013   -4.2805 F   0  0  0  0  0  0  0  0  0  0  0  0
   -1.7051   -0.4709   -8.6293 F   0  0  0  0  0  0  0  0  0  0  0  0
   -2.4023    0.1488  -11.2417 F   0  0  0  0  0  0  0  0  0  0  0  0
    4.8190    0.5952   -7.3990 F   0  0  0  0  0  0  0  0  0  0  0  0
    2.3565    1.6859   -7.3149 F   0  0  0  0  0  0  0  0  0  0  0  0
  1  2  1  0
  1  3  1  0
  2  7  1  0
  2 14  1  0
  2 15  1  0
  3  4  1  0
  3 16  1  0
  3 17  1  0
  4  5  1  0
  4 30  1  0
  4 31  1  0
  5  8  1  0
  5 18  1  0
  5 19  1  0
  6  7  1  0
  6  9  1  0
  6 32  1  0
  6 33  1  0
  7 22  1  0
  7 23  1  0
  8 10  1  0
  8 20  1  0
  8 21  1  0
  9 11  1  0
  9 36  1  0
  9 37  1  0
 10 12  1  0
 10 34  1  0
 10 35  1  0
 11 13  1  0
 11 28  1  0
 11 29  1  0
 12 13  1  0
 12 24  1  0
 12 25  1  0
 13 26  1  0
 13 27  1  0
M  CHG  1   1   1
M  RAD  1   1   2
M  END
$$$$

     RDKit          3D

 37 37  0  0  0  0  0  0  0  0999 V2000
    0.0327    0.0596   -3.1309 S   0  0  0  0  0  2  0  0  0  0  0  0
   -1.3170    1.0247   -4.4780 Si  0  0  0  0  0  4  0  0  0  0  0  0
    1.8918   -0.4194   -4.0911 Si  0  0  0  0  0  4  0  0  0  0  0  0
    1.5581   -1.7981   -5.7459 Si  0  0  0  0  0  4  0  0  0  0  0  0
    3.2171   -2.0078   -7.1687 Si  0  0  0  0  0  4  0  0  0  0  0  0
   -1.0574    2.9408   -7.5302 Si  0  0  0  0  0  4  0  0  0  0  0  0
   -0.4726    2.8678   -5.3553 Si  0  0  0  0  0  4  0  0  0  0  0  0
    4.2402   -0.1363   -7.6827 Si  0  0  0  0  0  4  0  0  0  0  0  0
   -0.0422    4.6008   -8.5830 Si  0  0  0  0  0  4  0  0  0  0  0  0
    4.0252    0.3795   -9.8576 Si  0  0  0  0  0  4  0  0  0  0  0  0
    1.6865    3.7712   -9.7695 Si  0  0  0  0  0  4  0  0  0  0  0  0
    1.9353    0.1743  -10.5472 Si  0  0  0  0  0  4  0  0  0  0  0  0
    0.9994    2.1179  -11.0501 Si  0  0  0  0  0  4  0  0  0  0  0  0
   -2.6969    1.4500   -3.5849 F   0  0  0  0  0  0  0  0  0  0  0  0
   -1.8292   -0.0582   -5.6677 F   0  0  0  0  0  0  0  0  0  0  0  0
    2.8724   -1.1650   -2.9104 F   0  0  0  0  0  0  0  0  0  0  0  0
    2.6317    1.0181   -4.5041 F   0  0  0  0  0  0  0  0  0  0  0  0
    2.5945   -2.6929   -8.6038 F   0  0  0  0  0  0  0  0  0  0  0  0
    4.3102   -3.1689   -6.5595 F   0  0  0  0  0  0  0  0  0  0  0  0
    5.9148   -0.3419   -7.4134 F   0  0  0  0  0  0  0  0  0  0  0  0
    3.7549    1.1799   -6.7901 F   0  0  0  0  0  0  0  0  0  0  0  0
   -1.1665    4.2523   -4.6386 F   0  0  0  0  0  0  0  0  0  0  0  0
    1.1761    2.9968   -5.1884 F   0  0  0  0  0  0  0  0  0  0  0  0
    0.9975   -0.7006   -9.4300 F   0  0  0  0  0  0  0  0  0  0  0  0
    1.9529   -0.7628  -11.9711 F   0  0  0  0  0  0  0  0  0  0  0  0
    1.3883    2.4932  -12.6682 F   0  0  0  0  0  0  0  0  0  0  0  0
   -0.6727    1.9620  -10.9773 F   0  0  0  0  0  0  0  0  0  0  0  0
    2.8674    3.3347   -8.6792 F   0  0  0  0  0  0  0  0  0  0  0  0
    2.3098    5.0590  -10.6998 F   0  0  0  0  0  0  0  0  0  0  0  0
    1.2369   -3.3461   -5.0976 F   0  0  0  0  0  0  0  0  0  0  0  0
    0.1583   -1.3564   -6.5984 F   0  0  0  0  0  0  0  0  0  0  0  0
   -2.7345    3.1360   -7.5913 F   0  0  0  0  0  0  0  0  0  0  0  0
   -0.6729    1.4730   -8.2111 F   0  0  0  0  0  0  0  0  0  0  0  0
    4.5256    1.9698  -10.0635 F   0  0  0  0  0  0  0  0  0  0  0  0
    5.0804   -0.6118  -10.7301 F   0  0  0  0  0  0  0  0  0  0  0  0
   -1.1315    5.2391   -9.7285 F   0  0  0  0  0  0  0  0  0  0  0  0
    0.4579    5.8216   -7.5579 F   0  0  0  0  0  0  0  0  0  0  0  0
  1  2  1  0
  1  3  1  0
  2  7  1  0
  2 14  1  0
  2 15  1  0
  3  4  1  0
  3 16  1  0
  3 17  1  0
  4  5  1  0
  4 30  1  0
  4 31  1  0
  5  8  1  0
  5 18  1  0
  5 19  1  0
  6  7  1  0
  6  9  1  0
  6 32  1  0
  6 33  1  0
  7 22  1  0
  7 23  1  0
  8 10  1  0
  8 20  1  0
  8 21  1  0
  9 11  1  0
  9 36  1  0
  9 37  1  0
 10 12  1  0
 10 34  1  0
 10 35  1  0
 11 13  1  0
 11 28  1  0
 11 29  1  0
 12 13  1  0
 12 24  1  0
 12 25  1  0
 13 26  1  0
 13 27  1  0
M  CHG  1   1   1
M  RAD  1   1   2
M  END
$$$$

     RDKit          3D

 37 37  0  0  0  0  0  0  0  0999 V2000
    0.0327    0.0596   -3.1309 S   0  0  0  0  0  2  0  0  0  0  0  0
    0.0276    1.7500   -4.4387 Si  0  0  0  0  0  4  0  0  0  0  0  0
    0.7043   -1.7119   -4.1401 Si  0  0  0  0  0  4  0  0  0  0  0  0
   -0.6316   -2.1964   -5.7927 Si  0  0  0  0  0  4  0  0  0  0  0  0
    0.1395   -3.6383   -7.2579 Si  0  0  0  0  0  4  0  0  0  0  0  0
    1.7098    2.7156   -7.4870 Si  0  0  0  0  0  4  0  0  0  0  0  0
    2.0107    2.1451   -5.3280 Si  0  0  0  0  0  4  0  0  0  0  0  0
    2.2527   -3.3812   -7.7884 Si  0  0  0  0  0  4  0  0  0  0  0  0
    3.6401    2.8698   -8.5570 Si  0  0  0  0  0  4  0  0  0  0  0  0
    2.5269   -2.8569   -9.9546 Si  0  0  0  0  0  4  0  0  0  0  0  0
    3.9478    1.0077   -9.7909 Si  0  0  0  0  0  4  0  0  0  0  0  0
    1.1459   -1.2533  -10.5922 Si  0  0  0  0  0  4  0  0  0  0  0  0
    2.1876    0.6443  -11.0618 Si  0  0  0  0  0  4  0  0  0  0  0  0
   -0.4119    3.1009   -3.5089 F   0  0  0  0  0  0  0  0  0  0  0  0
   -1.1649    1.5710   -5.6204 F   0  0  0  0  0  0  0  0  0  0  0  0
    0.6738   -2.9704   -2.9882 F   0  0  0  0  0  0  0  0  0  0  0  0
    2.3008   -1.4764   -4.5646 F   0  0  0  0  0  0  0  0  0  0  0  0
   -0.7945   -3.4918   -8.6802 F   0  0  0  0  0  0  0  0  0  0  0  0
   -0.1714   -5.2151   -6.6822 F   0  0  0  0  0  0  0  0  0  0  0  0
    3.0542   -4.8731   -7.5625 F   0  0  0  0  0  0  0  0  0  0  0  0
    3.0569   -2.2463   -6.8774 F   0  0  0  0  0  0  0  0  0  0  0  0
    2.7484    3.4938   -4.5872 F   0  0  0  0  0  0  0  0  0  0  0  0
    3.0694    0.8699   -5.2022 F   0  0  0  0  0  0  0  0  0  0  0  0
   -0.0979   -1.0189   -9.4560 F   0  0  0  0  0  0  0  0  0  0  0  0
    0.3758   -1.7751  -12.0207 F   0  0  0  0  0  0  0  0  0  0  0  0
    2.7014    0.5814  -12.6874 F   0  0  0  0  0  0  0  0  0  0  0  0
    1.0961    1.9175  -10.9475 F   0  0  0  0  0  0  0  0  0  0  0  0
    4.2844   -0.2338   -8.7329 F   0  0  0  0  0  0  0  0  0  0  0  0
    5.3493    1.2640  -10.7303 F   0  0  0  0  0  0  0  0  0  0  0  0
   -2.0742   -2.8429   -5.1441 F   0  0  0  0  0  0  0  0  0  0  0  0
   -1.0878   -0.7788   -6.6074 F   0  0  0  0  0  0  0  0  0  0  0  0
    0.9008    4.1987   -7.5049 F   0  0  0  0  0  0  0  0  0  0  0  0
    0.7259    1.5705   -8.1846 F   0  0  0  0  0  0  0  0  0  0  0  0
    4.1121   -2.3427  -10.1653 F   0  0  0  0  0  0  0  0  0  0  0  0
    2.3171   -4.2700  -10.8584 F   0  0  0  0  0  0  0  0  0  0  0  0
    3.5206    4.1542   -9.6715 F   0  0  0  0  0  0  0  0  0  0  0  0
    4.9365    3.1421   -7.5390 F   0  0  0  0  0  0  0  0  0  0  0  0
  1  2  1  0
  1  3  1  0
  2  7  1  0
  2 14  1  0
  2 15  1  0
  3  4  1  0
  3 16  1  0
  3 17  1  0
  4  5  1  0
  4 30  1  0
  4 31  1  0
  5  8  1  0
  5 18  1  0
  5 19  1  0
  6  7  1  0
  6  9  1  0
  6 32  1  0
  6 33  1  0
  7 22  1  0
  7 23  1  0
  8 10  1  0
  8 20  1  0
  8 21  1  0
  9 11  1  0
  9 36  1  0
  9 37  1  0
 10 12  1  0
 10 34  1  0
 10 35  1  0
 11 13  1  0
 11 28  1  0
 11 29  1  0
 12 13  1  0
 12 24  1  0
 12 25  1  0
 13 26  1  0
 13 27  1  0
M  CHG  1   1   1
M  RAD  1   1   2
M  END
$$$$

     RDKit          3D

 37 37  0  0  0  0  0  0  0  0999 V2000
    0.0327    0.0596   -3.1309 S   0  0  0  0  0  2  0  0  0  0  0  0
   -0.3788    1.6925   -4.4470 Si  0  0  0  0  0  4  0  0  0  0  0  0
    1.1239   -1.4968   -4.1281 Si  0  0  0  0  0  4  0  0  0  0  0  0
   -0.0427   -2.2999   -5.7847 Si  0  0  0  0  0  4  0  0  0  0  0  0
    1.0669   -3.5141   -7.2391 Si  0  0  0  0  0  4  0  0  0  0  0  0
    1.0335    3.0300   -7.4919 Si  0  0  0  0  0  4  0  0  0  0  0  0
    1.4522    2.5584   -5.3286 Si  0  0  0  0  0  4  0  0  0  0  0  0
    3.0558   -2.7488   -7.7606 Si  0  0  0  0  0  4  0  0  0  0  0  0
    2.8734    3.6488   -8.5533 Si  0  0  0  0  0  4  0  0  0  0  0  0
    3.2059   -2.1811   -9.9280 Si  0  0  0  0  0  4  0  0  0  0  0  0
    3.6353    1.9145   -9.7764 Si  0  0  0  0  0  4  0  0  0  0  0  0
    1.4778   -0.9671  -10.5802 Si  0  0  0  0  0  4  0  0  0  0  0  0
    2.0254    1.1262  -11.0541 Si  0  0  0  0  0  4  0  0  0  0  0  0
   -1.1415    2.8977   -3.5261 F   0  0  0  0  0  0  0  0  0  0  0  0
   -1.4840    1.2224   -5.6336 F   0  0  0  0  0  0  0  0  0  0  0  0
    1.3960   -2.7203   -2.9702 F   0  0  0  0  0  0  0  0  0  0  0  0
    2.6165   -0.8787   -4.5460 F   0  0  0  0  0  0  0  0  0  0  0  0
    0.1339   -3.6061   -8.6666 F   0  0  0  0  0  0  0  0  0  0  0  0
    1.1486   -5.1169   -6.6571 F   0  0  0  0  0  0  0  0  0  0  0  0
    4.1971   -3.9979   -7.5235 F   0  0  0  0  0  0  0  0  0  0  0  0
    3.5519   -1.4481   -6.8513 F   0  0  0  0  0  0  0  0  0  0  0  0
    1.8325    4.0494   -4.5909 F   0  0  0  0  0  0  0  0  0  0  0  0
    2.7903    1.5820   -5.1914 F   0  0  0  0  0  0  0  0  0  0  0  0
    0.2078   -1.0407   -9.4511 F   0  0  0  0  0  0  0  0  0  0  0  0
    0.8675   -1.6669  -12.0098 F   0  0  0  0  0  0  0  0  0  0  0  0
    2.5486    1.1853  -12.6768 F   0  0  0  0  0  0  0  0  0  0  0  0
    0.6545    2.0934  -10.9513 F   0  0  0  0  0  0  0  0  0  0  0  0
    4.2597    0.7972   -8.7107 F   0  0  0  0  0  0  0  0  0  0  0  0
    4.9368    2.5031  -10.7103 F   0  0  0  0  0  0  0  0  0  0  0  0
   -1.2867   -3.2780   -5.1399 F   0  0  0  0  0  0  0  0  0  0  0  0
   -0.8276   -1.0404   -6.6086 F   0  0  0  0  0  0  0  0  0  0  0  0
   -0.1143    4.2695   -7.5209 F   0  0  0  0  0  0  0  0  0  0  0  0
    0.3643    1.6762   -8.1886 F   0  0  0  0  0  0  0  0  0  0  0  0
    4.6179   -1.2947  -10.1335 F   0  0  0  0  0  0  0  0  0  0  0  0
    3.3542   -3.6057  -10.8258 F   0  0  0  0  0  0  0  0  0  0  0  0
    2.4493    4.8607   -9.6746 F   0  0  0  0  0  0  0  0  0  0  0  0
    4.0575    4.2342   -7.5303 F   0  0  0  0  0  0  0  0  0  0  0  0
  1  2  1  0
  1  3  1  0
  2  7  1  0
  2 14  1  0
  2 15  1  0
  3  4  1  0
  3 16  1  0
  3 17  1  0
  4  5  1  0
  4 30  1  0
  4 31  1  0
  5  8  1  0
  5 18  1  0
  5 19  1  0
  6  7  1  0
  6  9  1  0
  6 32  1  0
  6 33  1  0
  7 22  1  0
  7 23  1  0
  8 10  1  0
  8 20  1  0
  8 21  1  0
  9 11  1  0
  9 36  1  0
  9 37  1  0
 10 12  1  0
 10 34  1  0
 10 35  1  0
 11 13  1  0
 11 28  1  0
 11 29  1  0
 12 13  1  0
 12 24  1  0
 12 25  1  0
 13 26  1  0
 13 27  1  0
M  CHG  1   1   1
M  RAD  1   1   2
M  END
$$$$

     RDKit          3D

 37 37  0  0  0  0  0  0  0  0999 V2000
    0.0327    0.0596   -3.1309 S   0  0  0  0  0  2  0  0  0  0  0  0
   -1.1373    1.7147   -3.7757 Si  0  0  0  0  0  4  0  0  0  0  0  0
    2.0622    0.1904   -3.8113 Si  0  0  0  0  0  4  0  0  0  0  0  0
    2.1276    0.9036   -5.9106 Si  0  0  0  0  0  4  0  0  0  0  0  0
    4.0868    0.3782   -6.8891 Si  0  0  0  0  0  4  0  0  0  0  0  0
   -2.5438   -1.1098   -5.6367 Si  0  0  0  0  0  4  0  0  0  0  0  0
   -2.3299    1.0642   -5.5766 Si  0  0  0  0  0  4  0  0  0  0  0  0
    4.0231    1.2003   -8.9673 Si  0  0  0  0  0  4  0  0  0  0  0  0
   -1.9818   -2.0649   -7.5343 Si  0  0  0  0  0  4  0  0  0  0  0  0
    1.8915    1.2456   -9.6851 Si  0  0  0  0  0  4  0  0  0  0  0  0
   -2.3544   -0.8831   -9.3285 Si  0  0  0  0  0  4  0  0  0  0  0  0
    1.2776   -0.8495  -10.1564 Si  0  0  0  0  0  4  0  0  0  0  0  0
   -0.7952   -0.9872  -10.8695 Si  0  0  0  0  0  4  0  0  0  0  0  0
   -0.1500    3.0232   -4.1562 F   0  0  0  0  0  0  0  0  0  0  0  0
   -2.1737    2.1999   -2.5355 F   0  0  0  0  0  0  0  0  0  0  0  0
    2.9361    1.2628   -2.8503 F   0  0  0  0  0  0  0  0  0  0  0  0
    2.7844   -1.3532   -3.7719 F   0  0  0  0  0  0  0  0  0  0  0  0
    4.2476   -1.3107   -6.9141 F   0  0  0  0  0  0  0  0  0  0  0  0
    5.3085    1.0942   -5.9787 F   0  0  0  0  0  0  0  0  0  0  0  0
    4.9753    0.2664   -9.9990 F   0  0  0  0  0  0  0  0  0  0  0  0
    4.5887    2.7965   -8.8876 F   0  0  0  0  0  0  0  0  0  0  0  0
   -3.8535    1.8185   -5.4201 F   0  0  0  0  0  0  0  0  0  0  0  0
   -1.5899    1.7304   -6.9145 F   0  0  0  0  0  0  0  0  0  0  0  0
    1.6462   -1.8839   -8.9075 F   0  0  0  0  0  0  0  0  0  0  0  0
    2.2773   -1.3221  -11.4655 F   0  0  0  0  0  0  0  0  0  0  0  0
   -0.9701   -2.4616  -11.7127 F   0  0  0  0  0  0  0  0  0  0  0  0
   -1.0608    0.2388  -11.9993 F   0  0  0  0  0  0  0  0  0  0  0  0
   -3.7991   -1.4425  -10.0623 F   0  0  0  0  0  0  0  0  0  0  0  0
   -2.6828    0.7571   -9.0023 F   0  0  0  0  0  0  0  0  0  0  0  0
    0.9243    0.0999   -6.7760 F   0  0  0  0  0  0  0  0  0  0  0  0
    1.9119    2.5525   -6.0313 F   0  0  0  0  0  0  0  0  0  0  0  0
   -4.1486   -1.5220   -5.2244 F   0  0  0  0  0  0  0  0  0  0  0  0
   -1.5822   -1.7831   -4.3955 F   0  0  0  0  0  0  0  0  0  0  0  0
    0.9280    1.9510   -8.5304 F   0  0  0  0  0  0  0  0  0  0  0  0
    1.8933    2.1538  -11.1231 F   0  0  0  0  0  0  0  0  0  0  0  0
   -2.8374   -3.5455   -7.6229 F   0  0  0  0  0  0  0  0  0  0  0  0
   -0.3466   -2.5315   -7.4545 F   0  0  0  0  0  0  0  0  0  0  0  0
  1  2  1  0
  1  3  1  0
  2  7  1  0
  2 14  1  0
  2 15  1  0
  3  4  1  0
  3 16  1  0
  3 17  1  0
  4  5  1  0
  4 30  1  0
  4 31  1  0
  5  8  1  0
  5 18  1  0
  5 19  1  0
  6  7  1  0
  6  9  1  0
  6 32  1  0
  6 33  1  0
  7 22  1  0
  7 23  1  0
  8 10  1  0
  8 20  1  0
  8 21  1  0
  9 11  1  0
  9 36  1  0
  9 37  1  0
 10 12  1  0
 10 34  1  0
 10 35  1  0
 11 13  1  0
 11 28  1  0
 11 29  1  0
 12 13  1  0
 12 24  1  0
 12 25  1  0
 13 26  1  0
 13 27  1  0
M  CHG  1   1   1
M  RAD  1   1   2
M  END
$$$$
