
     RDKit          3D

 37 37  0  0  0  0  0  0  0  0999 V2000
   -0.6736    0.8269   -2.7421 S   0  0  0  0  0  2  0  0  0  0  0  0
   -1.1013    2.8220   -3.3282 Si  0  0  0  0  0  4  0  0  0  0  0  0
   -2.0438   -0.5934   -3.5223 Si  0  0  0  0  0  4  0  0  0  0  0  0
   -1.1749   -1.6314   -5.2953 Si  0  0  0  0  0  4  0  0  0  0  0  0
   -2.7310   -2.7967   -6.3962 Si  0  0  0  0  0  4  0  0  0  0  0  0
   -3.5755    4.4925   -5.4943 Si  0  0  0  0  0  4  0  0  0  0  0  0
   -1.9901    2.9487   -5.3566 Si  0  0  0  0  0  4  0  0  0  0  0  0
   -4.1672   -1.3799   -7.4074 Si  0  0  0  0  0  4  0  0  0  0  0  0
   -5.6201    3.6032   -5.4286 Si  0  0  0  0  0  4  0  0  0  0  0  0
   -3.1655   -0.1999   -8.9736 Si  0  0  0  0  0  4  0  0  0  0  0  0
   -6.6155    3.6574   -7.4013 Si  0  0  0  0  0  4  0  0  0  0  0  0
   -4.1623    1.7426   -9.3732 Si  0  0  0  0  0  4  0  0  0  0  0  0
   -6.2325    1.8180   -8.6033 Si  0  0  0  0  0  4  0  0  0  0  0  0
    0.3760    3.6769   -3.3690 F   0  0  0  0  0  0  0  0  0  0  0  0
   -2.1046    3.6198   -2.2197 F   0  0  0  0  0  0  0  0  0  0  0  0
   -2.2903   -1.7864   -2.3246 F   0  0  0  0  0  0  0  0  0  0  0  0
   -3.5523    0.0663   -3.8551 F   0  0  0  0  0  0  0  0  0  0  0  0
   -2.0181   -3.7840   -7.5258 F   0  0  0  0  0  0  0  0  0  0  0  0
   -3.6621   -3.6913   -5.2899 F   0  0  0  0  0  0  0  0  0  0  0  0
   -5.3706   -2.3296   -8.1285 F   0  0  0  0  0  0  0  0  0  0  0  0
   -4.8534   -0.4693   -6.2001 F   0  0  0  0  0  0  0  0  0  0  0  0
   -2.5777    1.4386   -5.7772 F   0  0  0  0  0  0  0  0  0  0  0  0
   -0.7893    3.3465   -6.5026 F   0  0  0  0  0  0  0  0  0  0  0  0
   -3.2399    3.0279   -8.7315 F   0  0  0  0  0  0  0  0  0  0  0  0
   -4.1278    1.9908  -11.0635 F   0  0  0  0  0  0  0  0  0  0  0  0
   -6.6656    0.4429   -7.7439 F   0  0  0  0  0  0  0  0  0  0  0  0
   -7.2927    1.8914   -9.9416 F   0  0  0  0  0  0  0  0  0  0  0  0
   -6.1987    5.0078   -8.2854 F   0  0  0  0  0  0  0  0  0  0  0  0
   -8.2984    3.7297   -7.1291 F   0  0  0  0  0  0  0  0  0  0  0  0
   -0.0401   -2.7550   -4.7083 F   0  0  0  0  0  0  0  0  0  0  0  0
   -0.4181   -0.5664   -6.3420 F   0  0  0  0  0  0  0  0  0  0  0  0
   -3.4240    5.4177   -6.9159 F   0  0  0  0  0  0  0  0  0  0  0  0
   -3.3427    5.5818   -4.2036 F   0  0  0  0  0  0  0  0  0  0  0  0
   -1.5313    0.0544   -8.5504 F   0  0  0  0  0  0  0  0  0  0  0  0
   -3.1192   -1.1435  -10.3964 F   0  0  0  0  0  0  0  0  0  0  0  0
   -6.5424    4.5701   -4.3638 F   0  0  0  0  0  0  0  0  0  0  0  0
   -5.6036    2.0594   -4.7714 F   0  0  0  0  0  0  0  0  0  0  0  0
  1  2  1  0
  1  3  1  0
  2  7  1  0
  2 14  1  0
  2 15  1  0
  3  4  1  0
  3 16  1  0
  3 17  1  0
  4  5  1  0
  4 30  1  0
  4 31  1  0
  5  8  1  0
  5 18  1  0
  5 19  1  0
  6  7  1  0
  6  9  1  0
  6 32  1  0
  6 33  1  0
  7 22  1  0
  7 23  1  0
  8 10  1  0
  8 20  1  0
  8 21  1  0
  9 11  1  0
  9 36  1  0
  9 37  1  0
 10 12  1  0
 10 34  1  0
 10 35  1  0
 11 13  1  0
 11 28  1  0
 11 29  1  0
 12 13  1  0
 12 24  1  0
 12 25  1  0
 13 26  1  0
 13 27  1  0
M  CHG  1   1   1
M  RAD  1   1   2
M  END
$$$$

     RDKit          3D

 37 37  0  0  0  0  0  0  0  0999 V2000
   -0.6736    0.8269   -2.7421 S   0  0  0  0  0  2  0  0  0  0  0  0
   -0.0599   -0.3079   -4.3866 Si  0  0  0  0  0  4  0  0  0  0  0  0
   -1.0516    2.8467   -3.0559 Si  0  0  0  0  0  4  0  0  0  0  0  0
   -0.1226    3.7432   -4.8419 Si  0  0  0  0  0  4  0  0  0  0  0  0
    2.0611    4.1576   -4.5315 Si  0  0  0  0  0  4  0  0  0  0  0  0
   -0.7914   -3.1711   -6.5590 Si  0  0  0  0  0  4  0  0  0  0  0  0
   -1.6848   -1.6867   -5.1267 Si  0  0  0  0  0  4  0  0  0  0  0  0
    3.1888    4.0229   -6.4431 Si  0  0  0  0  0  4  0  0  0  0  0  0
   -1.1759   -2.5758   -8.6664 Si  0  0  0  0  0  4  0  0  0  0  0  0
    3.8094    1.9346   -6.8979 Si  0  0  0  0  0  4  0  0  0  0  0  0
   -0.0808   -0.7431   -9.2350 Si  0  0  0  0  0  4  0  0  0  0  0  0
    2.8882    1.2684   -8.8091 Si  0  0  0  0  0  4  0  0  0  0  0  0
    2.0551   -0.7981   -8.6439 Si  0  0  0  0  0  4  0  0  0  0  0  0
    1.2174   -1.3317   -3.8947 F   0  0  0  0  0  0  0  0  0  0  0  0
    0.4903    0.5613   -5.6912 F   0  0  0  0  0  0  0  0  0  0  0  0
   -0.5302    3.7395   -1.6970 F   0  0  0  0  0  0  0  0  0  0  0  0
   -2.7353    3.1098   -3.1486 F   0  0  0  0  0  0  0  0  0  0  0  0
    2.2742    5.7337   -3.9272 F   0  0  0  0  0  0  0  0  0  0  0  0
    2.7343    3.1089   -3.4122 F   0  0  0  0  0  0  0  0  0  0  0  0
    2.2593    4.6333   -7.7283 F   0  0  0  0  0  0  0  0  0  0  0  0
    4.5563    5.0371   -6.3271 F   0  0  0  0  0  0  0  0  0  0  0  0
   -2.9358   -0.8337   -5.8195 F   0  0  0  0  0  0  0  0  0  0  0  0
   -2.3172   -2.5778   -3.8243 F   0  0  0  0  0  0  0  0  0  0  0  0
    4.0303    1.3339  -10.0747 F   0  0  0  0  0  0  0  0  0  0  0  0
    1.6695    2.3807   -9.2394 F   0  0  0  0  0  0  0  0  0  0  0  0
    2.2755   -1.4219   -7.0945 F   0  0  0  0  0  0  0  0  0  0  0  0
    2.9275   -1.8175   -9.6994 F   0  0  0  0  0  0  0  0  0  0  0  0
   -0.7787    0.6379   -8.5371 F   0  0  0  0  0  0  0  0  0  0  0  0
   -0.1696   -0.5433  -10.9066 F   0  0  0  0  0  0  0  0  0  0  0  0
   -0.4018    2.8856   -6.2417 F   0  0  0  0  0  0  0  0  0  0  0  0
   -0.8539    5.2743   -5.0635 F   0  0  0  0  0  0  0  0  0  0  0  0
   -1.5255   -4.6892   -6.3180 F   0  0  0  0  0  0  0  0  0  0  0  0
    0.8516   -3.3791   -6.2715 F   0  0  0  0  0  0  0  0  0  0  0  0
    5.5025    1.9100   -7.1102 F   0  0  0  0  0  0  0  0  0  0  0  0
    3.4712    0.8913   -5.6268 F   0  0  0  0  0  0  0  0  0  0  0  0
   -0.7901   -3.8422   -9.6806 F   0  0  0  0  0  0  0  0  0  0  0  0
   -2.8378   -2.2742   -8.8211 F   0  0  0  0  0  0  0  0  0  0  0  0
  1  2  1  0
  1  3  1  0
  2  7  1  0
  2 14  1  0
  2 15  1  0
  3  4  1  0
  3 16  1  0
  3 17  1  0
  4  5  1  0
  4 30  1  0
  4 31  1  0
  5  8  1  0
  5 18  1  0
  5 19  1  0
  6  7  1  0
  6  9  1  0
  6 32  1  0
  6 33  1  0
  7 22  1  0
  7 23  1  0
  8 10  1  0
  8 20  1  0
  8 21  1  0
  9 11  1  0
  9 36  1  0
  9 37  1  0
 10 12  1  0
 10 34  1  0
 10 35  1  0
 11 13  1  0
 11 28  1  0
 11 29  1  0
 12 13  1  0
 12 24  1  0
 12 25  1  0
 13 26  1  0
 13 27  1  0
M  CHG  1   1   1
M  RAD  1   1   2
M  END
$$$$

     RDKit          3D

 37 37  0  0  0  0  0  0  0  0999 V2000
   -0.6736    0.8269   -2.7421 S   0  0  0  0  0  2  0  0  0  0  0  0
    0.3838    0.1927   -4.4299 Si  0  0  0  0  0  4  0  0  0  0  0  0
   -1.6621    2.6518   -2.8575 Si  0  0  0  0  0  4  0  0  0  0  0  0
   -0.9544    4.0439   -4.4124 Si  0  0  0  0  0  4  0  0  0  0  0  0
    0.9518    5.0672   -3.8157 Si  0  0  0  0  0  4  0  0  0  0  0  0
    0.7660   -2.4059   -6.9897 Si  0  0  0  0  0  4  0  0  0  0  0  0
   -0.6541   -1.4995   -5.5016 Si  0  0  0  0  0  4  0  0  0  0  0  0
    2.1890    5.5711   -5.5931 Si  0  0  0  0  0  4  0  0  0  0  0  0
    0.3531   -1.6585   -9.0426 Si  0  0  0  0  0  4  0  0  0  0  0  0
    3.4807    3.8697   -6.2175 Si  0  0  0  0  0  4  0  0  0  0  0  0
    0.8326    0.4864   -9.2681 Si  0  0  0  0  0  4  0  0  0  0  0  0
    2.9558    3.2369   -8.2836 Si  0  0  0  0  0  4  0  0  0  0  0  0
    2.8265    1.0130   -8.4547 Si  0  0  0  0  0  4  0  0  0  0  0  0
    1.8871   -0.4432   -3.9227 F   0  0  0  0  0  0  0  0  0  0  0  0
    0.7103    1.3709   -5.5548 F   0  0  0  0  0  0  0  0  0  0  0  0
   -1.5506    3.4538   -1.3542 F   0  0  0  0  0  0  0  0  0  0  0  0
   -3.3302    2.3884   -3.1047 F   0  0  0  0  0  0  0  0  0  0  0  0
    0.6024    6.5251   -3.0113 F   0  0  0  0  0  0  0  0  0  0  0  0
    1.8505    4.1283   -2.7590 F   0  0  0  0  0  0  0  0  0  0  0  0
    1.2012    6.0429   -6.8931 F   0  0  0  0  0  0  0  0  0  0  0  0
    3.1440    6.9321   -5.2085 F   0  0  0  0  0  0  0  0  0  0  0  0
   -2.0637   -0.9864   -6.2242 F   0  0  0  0  0  0  0  0  0  0  0  0
   -1.0509   -2.7235   -4.3904 F   0  0  0  0  0  0  0  0  0  0  0  0
    4.0982    3.8388   -9.3986 F   0  0  0  0  0  0  0  0  0  0  0  0
    1.4750    3.9651   -8.7132 F   0  0  0  0  0  0  0  0  0  0  0  0
    3.1314    0.2693   -6.9740 F   0  0  0  0  0  0  0  0  0  0  0  0
    4.0509    0.4816   -9.5189 F   0  0  0  0  0  0  0  0  0  0  0  0
   -0.3198    1.4640   -8.4952 F   0  0  0  0  0  0  0  0  0  0  0  0
    0.7973    0.8908  -10.9044 F   0  0  0  0  0  0  0  0  0  0  0  0
   -0.8460    3.3564   -5.9251 F   0  0  0  0  0  0  0  0  0  0  0  0
   -2.1247    5.2865   -4.5330 F   0  0  0  0  0  0  0  0  0  0  0  0
    0.5476   -4.0952   -7.0108 F   0  0  0  0  0  0  0  0  0  0  0  0
    2.3646   -2.1321   -6.5484 F   0  0  0  0  0  0  0  0  0  0  0  0
    5.1011    4.4046   -6.2423 F   0  0  0  0  0  0  0  0  0  0  0  0
    3.4128    2.5989   -5.1224 F   0  0  0  0  0  0  0  0  0  0  0  0
    1.1953   -2.5794  -10.1490 F   0  0  0  0  0  0  0  0  0  0  0  0
   -1.3026   -1.8698   -9.3442 F   0  0  0  0  0  0  0  0  0  0  0  0
  1  2  1  0
  1  3  1  0
  2  7  1  0
  2 14  1  0
  2 15  1  0
  3  4  1  0
  3 16  1  0
  3 17  1  0
  4  5  1  0
  4 30  1  0
  4 31  1  0
  5  8  1  0
  5 18  1  0
  5 19  1  0
  6  7  1  0
  6  9  1  0
  6 32  1  0
  6 33  1  0
  7 22  1  0
  7 23  1  0
  8 10  1  0
  8 20  1  0
  8 21  1  0
  9 11  1  0
  9 36  1  0
  9 37  1  0
 10 12  1  0
 10 34  1  0
 10 35  1  0
 11 13  1  0
 11 28  1  0
 11 29  1  0
 12 13  1  0
 12 24  1  0
 12 25  1  0
 13 26  1  0
 13 27  1  0
M  CHG  1   1   1
M  RAD  1   1   2
M  END
$$$$

     RDKit          3D

 37 37  0  0  0  0  0  0  0  0999 V2000
   -0.6736    0.8269   -2.7421 S   0  0  0  0  0  2  0  0  0  0  0  0
   -0.6722    2.8058   -3.5107 Si  0  0  0  0  0  4  0  0  0  0  0  0
   -2.3916   -0.2905   -3.2929 Si  0  0  0  0  0  4  0  0  0  0  0  0
   -1.9267   -1.6597   -4.9914 Si  0  0  0  0  0  4  0  0  0  0  0  0
   -3.7909   -2.5149   -5.8774 Si  0  0  0  0  0  4  0  0  0  0  0  0
   -2.8531    4.8164   -5.7029 Si  0  0  0  0  0  4  0  0  0  0  0  0
   -1.6622    2.9584   -5.4899 Si  0  0  0  0  0  4  0  0  0  0  0  0
   -4.9343   -0.8934   -6.9525 Si  0  0  0  0  0  4  0  0  0  0  0  0
   -5.0365    4.4487   -5.4330 Si  0  0  0  0  0  4  0  0  0  0  0  0
   -3.8114   -0.1306   -8.6862 Si  0  0  0  0  0  4  0  0  0  0  0  0
   -6.1424    4.5615   -7.3433 Si  0  0  0  0  0  4  0  0  0  0  0  0
   -4.3595    1.9495   -9.2333 Si  0  0  0  0  0  4  0  0  0  0  0  0
   -6.2899    2.5839   -8.3641 Si  0  0  0  0  0  4  0  0  0  0  0  0
    0.9552    3.2774   -3.7215 F   0  0  0  0  0  0  0  0  0  0  0  0
   -1.3745    3.9153   -2.4395 F   0  0  0  0  0  0  0  0  0  0  0  0
   -2.8137   -1.2785   -1.9647 F   0  0  0  0  0  0  0  0  0  0  0  0
   -3.7276    0.6767   -3.6108 F   0  0  0  0  0  0  0  0  0  0  0  0
   -3.4157   -3.7405   -6.9340 F   0  0  0  0  0  0  0  0  0  0  0  0
   -4.8151   -3.0597   -4.6342 F   0  0  0  0  0  0  0  0  0  0  0  0
   -6.3770   -1.5901   -7.5032 F   0  0  0  0  0  0  0  0  0  0  0  0
   -5.2953    0.2585   -5.8122 F   0  0  0  0  0  0  0  0  0  0  0  0
   -2.6141    1.6001   -5.7167 F   0  0  0  0  0  0  0  0  0  0  0  0
   -0.4946    2.9549   -6.7349 F   0  0  0  0  0  0  0  0  0  0  0  0
   -3.1178    3.0305   -8.7815 F   0  0  0  0  0  0  0  0  0  0  0  0
   -4.3998    2.0301  -10.9396 F   0  0  0  0  0  0  0  0  0  0  0  0
   -6.9615    1.4339   -7.3426 F   0  0  0  0  0  0  0  0  0  0  0  0
   -7.4049    2.7875   -9.6431 F   0  0  0  0  0  0  0  0  0  0  0  0
   -5.4943    5.6893   -8.3859 F   0  0  0  0  0  0  0  0  0  0  0  0
   -7.7366    5.0562   -6.9892 F   0  0  0  0  0  0  0  0  0  0  0  0
   -1.0407   -2.9640   -4.3520 F   0  0  0  0  0  0  0  0  0  0  0  0
   -1.0276   -0.9035   -6.1840 F   0  0  0  0  0  0  0  0  0  0  0  0
   -2.6024    5.5480   -7.2200 F   0  0  0  0  0  0  0  0  0  0  0  0
   -2.2751    5.9299   -4.5485 F   0  0  0  0  0  0  0  0  0  0  0  0
   -2.1349   -0.2357   -8.3816 F   0  0  0  0  0  0  0  0  0  0  0  0
   -4.0952   -1.1815  -10.0023 F   0  0  0  0  0  0  0  0  0  0  0  0
   -5.6245    5.6986   -4.4272 F   0  0  0  0  0  0  0  0  0  0  0  0
   -5.3268    3.0104   -4.6188 F   0  0  0  0  0  0  0  0  0  0  0  0
  1  2  1  0
  1  3  1  0
  2  7  1  0
  2 14  1  0
  2 15  1  0
  3  4  1  0
  3 16  1  0
  3 17  1  0
  4  5  1  0
  4 30  1  0
  4 31  1  0
  5  8  1  0
  5 18  1  0
  5 19  1  0
  6  7  1  0
  6  9  1  0
  6 32  1  0
  6 33  1  0
  7 22  1  0
  7 23  1  0
  8 10  1  0
  8 20  1  0
  8 21  1  0
  9 11  1  0
  9 36  1  0
  9 37  1  0
 10 12  1  0
 10 34  1  0
 10 35  1  0
 11 13  1  0
 11 28  1  0
 11 29  1  0
 12 13  1  0
 12 24  1  0
 12 25  1  0
 13 26  1  0
 13 27  1  0
M  CHG  1   1   1
M  RAD  1   1   2
M  END
$$$$

     RDKit          3D

 37 37  0  0  0  0  0  0  0  0999 V2000
   -0.6736    0.8269   -2.7421 S   0  0  0  0  0  2  0  0  0  0  0  0
   -0.8456    2.9665   -2.6656 Si  0  0  0  0  0  4  0  0  0  0  0  0
    0.9577    0.2052   -3.9685 Si  0  0  0  0  0  4  0  0  0  0  0  0
    0.4116    0.1681   -6.1298 Si  0  0  0  0  0  4  0  0  0  0  0  0
    0.9477    2.0849   -7.1358 Si  0  0  0  0  0  4  0  0  0  0  0  0
   -2.5106    5.5267   -4.7341 Si  0  0  0  0  0  4  0  0  0  0  0  0
   -2.7302    3.5610   -3.6728 Si  0  0  0  0  0  4  0  0  0  0  0  0
    3.1355    2.4003   -7.2224 Si  0  0  0  0  0  4  0  0  0  0  0  0
   -2.7979    5.2134   -6.8764 Si  0  0  0  0  0  4  0  0  0  0  0  0
    3.5281    4.5541   -7.7101 Si  0  0  0  0  0  4  0  0  0  0  0  0
   -1.5743    6.4460   -8.2041 Si  0  0  0  0  0  4  0  0  0  0  0  0
    1.8788    5.4336   -8.9032 Si  0  0  0  0  0  4  0  0  0  0  0  0
    0.5232    6.6842   -7.6056 Si  0  0  0  0  0  4  0  0  0  0  0  0
    0.4978    3.7360   -3.2767 F   0  0  0  0  0  0  0  0  0  0  0  0
   -0.9632    3.3870   -1.0156 F   0  0  0  0  0  0  0  0  0  0  0  0
    1.3382   -1.3992   -3.5263 F   0  0  0  0  0  0  0  0  0  0  0  0
    2.3482    1.1144   -3.6941 F   0  0  0  0  0  0  0  0  0  0  0  0
    0.2660    3.3399   -6.2415 F   0  0  0  0  0  0  0  0  0  0  0  0
    0.3309    2.0325   -8.6985 F   0  0  0  0  0  0  0  0  0  0  0  0
    3.8995    1.4411   -8.3523 F   0  0  0  0  0  0  0  0  0  0  0  0
    3.7700    2.1363   -5.6603 F   0  0  0  0  0  0  0  0  0  0  0  0
   -3.1472    2.3352   -4.7765 F   0  0  0  0  0  0  0  0  0  0  0  0
   -3.9555    3.6185   -2.5256 F   0  0  0  0  0  0  0  0  0  0  0  0
    0.9929    4.2697   -9.7345 F   0  0  0  0  0  0  0  0  0  0  0  0
    2.5550    6.4637  -10.0709 F   0  0  0  0  0  0  0  0  0  0  0  0
    0.8383    6.2766   -6.0220 F   0  0  0  0  0  0  0  0  0  0  0  0
    0.9442    8.3294   -7.7877 F   0  0  0  0  0  0  0  0  0  0  0  0
   -2.3432    7.9558   -8.4166 F   0  0  0  0  0  0  0  0  0  0  0  0
   -1.6008    5.7213   -9.7529 F   0  0  0  0  0  0  0  0  0  0  0  0
   -1.2870    0.0282   -6.2193 F   0  0  0  0  0  0  0  0  0  0  0  0
    1.0587   -1.1615   -6.9207 F   0  0  0  0  0  0  0  0  0  0  0  0
   -3.7253    6.5619   -4.1290 F   0  0  0  0  0  0  0  0  0  0  0  0
   -1.0437    6.1787   -4.3039 F   0  0  0  0  0  0  0  0  0  0  0  0
    3.7321    5.4537   -6.2768 F   0  0  0  0  0  0  0  0  0  0  0  0
    4.9686    4.6564   -8.5626 F   0  0  0  0  0  0  0  0  0  0  0  0
   -2.5449    3.5700   -7.2653 F   0  0  0  0  0  0  0  0  0  0  0  0
   -4.4429    5.5063   -7.2371 F   0  0  0  0  0  0  0  0  0  0  0  0
  1  2  1  0
  1  3  1  0
  2  7  1  0
  2 14  1  0
  2 15  1  0
  3  4  1  0
  3 16  1  0
  3 17  1  0
  4  5  1  0
  4 30  1  0
  4 31  1  0
  5  8  1  0
  5 18  1  0
  5 19  1  0
  6  7  1  0
  6  9  1  0
  6 32  1  0
  6 33  1  0
  7 22  1  0
  7 23  1  0
  8 10  1  0
  8 20  1  0
  8 21  1  0
  9 11  1  0
  9 36  1  0
  9 37  1  0
 10 12  1  0
 10 34  1  0
 10 35  1  0
 11 13  1  0
 11 28  1  0
 11 29  1  0
 12 13  1  0
 12 24  1  0
 12 25  1  0
 13 26  1  0
 13 27  1  0
M  CHG  1   1   1
M  RAD  1   1   2
M  END
$$$$

     RDKit          3D

 37 37  0  0  0  0  0  0  0  0999 V2000
   -0.6736    0.8269   -2.7421 S   0  0  0  0  0  2  0  0  0  0  0  0
   -0.9565    2.8300   -3.3860 Si  0  0  0  0  0  4  0  0  0  0  0  0
   -2.1694   -0.5041   -3.4451 Si  0  0  0  0  0  4  0  0  0  0  0  0
   -1.4269   -1.6640   -5.1999 Si  0  0  0  0  0  4  0  0  0  0  0  0
   -3.0955   -2.7365   -6.2281 Si  0  0  0  0  0  4  0  0  0  0  0  0
   -3.3417    4.6219   -5.5549 Si  0  0  0  0  0  4  0  0  0  0  0  0
   -1.8801    2.9621   -5.3985 Si  0  0  0  0  0  4  0  0  0  0  0  0
   -4.4391   -1.2430   -7.2561 Si  0  0  0  0  0  4  0  0  0  0  0  0
   -5.4479    3.9004   -5.4165 Si  0  0  0  0  0  4  0  0  0  0  0  0
   -3.3847   -0.1970   -8.8818 Si  0  0  0  0  0  4  0  0  0  0  0  0
   -6.4821    3.9706   -7.3685 Si  0  0  0  0  0  4  0  0  0  0  0  0
   -4.2346    1.8048   -9.3258 Si  0  0  0  0  0  4  0  0  0  0  0  0
   -6.2736    2.0691   -8.5156 Si  0  0  0  0  0  4  0  0  0  0  0  0
    0.5822    3.5629   -3.4866 F   0  0  0  0  0  0  0  0  0  0  0  0
   -1.8675    3.7400   -2.2843 F   0  0  0  0  0  0  0  0  0  0  0  0
   -2.4808   -1.6349   -2.2030 F   0  0  0  0  0  0  0  0  0  0  0  0
   -3.6287    0.2624   -3.7683 F   0  0  0  0  0  0  0  0  0  0  0  0
   -2.4894   -3.8129   -7.3385 F   0  0  0  0  0  0  0  0  0  0  0  0
   -4.0680   -3.5185   -5.0730 F   0  0  0  0  0  0  0  0  0  0  0  0
   -5.7302   -2.1166   -7.9195 F   0  0  0  0  0  0  0  0  0  0  0  0
   -5.0228   -0.2427   -6.0661 F   0  0  0  0  0  0  0  0  0  0  0  0
   -2.5945    1.4908   -5.7556 F   0  0  0  0  0  0  0  0  0  0  0  0
   -0.6790    3.2264   -6.5821 F   0  0  0  0  0  0  0  0  0  0  0  0
   -3.1989    3.0325   -8.7472 F   0  0  0  0  0  0  0  0  0  0  0  0
   -4.2204    1.9953  -11.0238 F   0  0  0  0  0  0  0  0  0  0  0  0
   -6.7934    0.7609   -7.6015 F   0  0  0  0  0  0  0  0  0  0  0  0
   -7.3560    2.1838   -9.8331 F   0  0  0  0  0  0  0  0  0  0  0  0
   -5.9812    5.2546   -8.3062 F   0  0  0  0  0  0  0  0  0  0  0  0
   -8.1473    4.1851   -7.0637 F   0  0  0  0  0  0  0  0  0  0  0  0
   -0.3707   -2.8550   -4.5993 F   0  0  0  0  0  0  0  0  0  0  0  0
   -0.6135   -0.6966   -6.2976 F   0  0  0  0  0  0  0  0  0  0  0  0
   -3.1514    5.4862   -7.0097 F   0  0  0  0  0  0  0  0  0  0  0  0
   -2.9935    5.7298   -4.3068 F   0  0  0  0  0  0  0  0  0  0  0  0
   -1.7261   -0.0601   -8.5018 F   0  0  0  0  0  0  0  0  0  0  0  0
   -3.4464   -1.1863  -10.2728 F   0  0  0  0  0  0  0  0  0  0  0  0
   -6.2658    4.9712   -4.3657 F   0  0  0  0  0  0  0  0  0  0  0  0
   -5.5376    2.3820   -4.7081 F   0  0  0  0  0  0  0  0  0  0  0  0
  1  2  1  0
  1  3  1  0
  2  7  1  0
  2 14  1  0
  2 15  1  0
  3  4  1  0
  3 16  1  0
  3 17  1  0
  4  5  1  0
  4 30  1  0
  4 31  1  0
  5  8  1  0
  5 18  1  0
  5 19  1  0
  6  7  1  0
  6  9  1  0
  6 32  1  0
  6 33  1  0
  7 22  1  0
  7 23  1  0
  8 10  1  0
  8 20  1  0
  8 21  1  0
  9 11  1  0
  9 36  1  0
  9 37  1  0
 10 12  1  0
 10 34  1  0
 10 35  1  0
 11 13  1  0
 11 28  1  0
 11 29  1  0
 12 13  1  0
 12 24  1  0
 12 25  1  0
 13 26  1  0
 13 27  1  0
M  CHG  1   1   1
M  RAD  1   1   2
M  END
$$$$

     RDKit          3D

 37 37  0  0  0  0  0  0  0  0999 V2000
   -0.6736    0.8269   -2.7421 S   0  0  0  0  0  2  0  0  0  0  0  0
   -1.1861    2.9031   -2.5421 Si  0  0  0  0  0  4  0  0  0  0  0  0
    1.0824    0.5530   -3.9225 Si  0  0  0  0  0  4  0  0  0  0  0  0
    0.6340    0.5800   -6.1062 Si  0  0  0  0  0  4  0  0  0  0  0  0
    0.8977    2.6216   -6.9641 Si  0  0  0  0  0  4  0  0  0  0  0  0
   -3.1546    5.3085   -4.5284 Si  0  0  0  0  0  4  0  0  0  0  0  0
   -3.1004    3.2643   -3.6027 Si  0  0  0  0  0  4  0  0  0  0  0  0
    3.0093    3.2795   -6.9229 Si  0  0  0  0  0  4  0  0  0  0  0  0
   -3.3045    5.1024   -6.6975 Si  0  0  0  0  0  4  0  0  0  0  0  0
    3.0736    5.4965   -7.2566 Si  0  0  0  0  0  4  0  0  0  0  0  0
   -2.2413    6.5991   -7.8844 Si  0  0  0  0  0  4  0  0  0  0  0  0
    1.3535    6.1880   -8.4732 Si  0  0  0  0  0  4  0  0  0  0  0  0
   -0.2334    7.1197   -7.1694 Si  0  0  0  0  0  4  0  0  0  0  0  0
    0.0408    3.9129   -3.0374 F   0  0  0  0  0  0  0  0  0  0  0  0
   -1.4334    3.1856   -0.8772 F   0  0  0  0  0  0  0  0  0  0  0  0
    1.6953   -0.9989   -3.5619 F   0  0  0  0  0  0  0  0  0  0  0  0
    2.2990    1.6469   -3.5240 F   0  0  0  0  0  0  0  0  0  0  0  0
   -0.0091    3.6903   -6.0288 F   0  0  0  0  0  0  0  0  0  0  0  0
    0.3586    2.5812   -8.5557 F   0  0  0  0  0  0  0  0  0  0  0  0
    3.9596    2.5312   -8.0707 F   0  0  0  0  0  0  0  0  0  0  0  0
    3.6161    3.0108   -5.3506 F   0  0  0  0  0  0  0  0  0  0  0  0
   -3.2740    2.0673   -4.7992 F   0  0  0  0  0  0  0  0  0  0  0  0
   -4.3632    3.0510   -2.5161 F   0  0  0  0  0  0  0  0  0  0  0  0
    0.6968    4.9602   -9.4175 F   0  0  0  0  0  0  0  0  0  0  0  0
    1.9025    7.3888   -9.5402 F   0  0  0  0  0  0  0  0  0  0  0  0
    0.0804    6.6582   -5.6003 F   0  0  0  0  0  0  0  0  0  0  0  0
   -0.0722    8.8190   -7.2285 F   0  0  0  0  0  0  0  0  0  0  0  0
   -3.2314    7.9815   -8.0410 F   0  0  0  0  0  0  0  0  0  0  0  0
   -2.0918    5.9874   -9.4745 F   0  0  0  0  0  0  0  0  0  0  0  0
   -1.0160    0.1834   -6.2881 F   0  0  0  0  0  0  0  0  0  0  0  0
    1.5145   -0.5749   -6.9448 F   0  0  0  0  0  0  0  0  0  0  0  0
   -4.5410    6.0976   -3.9213 F   0  0  0  0  0  0  0  0  0  0  0  0
   -1.8278    6.1501   -3.9868 F   0  0  0  0  0  0  0  0  0  0  0  0
    3.0759    6.3161   -5.7621 F   0  0  0  0  0  0  0  0  0  0  0  0
    4.5117    5.8806   -8.0290 F   0  0  0  0  0  0  0  0  0  0  0  0
   -2.7787    3.5492   -7.1742 F   0  0  0  0  0  0  0  0  0  0  0  0
   -4.9598    5.1593   -7.1203 F   0  0  0  0  0  0  0  0  0  0  0  0
  1  2  1  0
  1  3  1  0
  2  7  1  0
  2 14  1  0
  2 15  1  0
  3  4  1  0
  3 16  1  0
  3 17  1  0
  4  5  1  0
  4 30  1  0
  4 31  1  0
  5  8  1  0
  5 18  1  0
  5 19  1  0
  6  7  1  0
  6  9  1  0
  6 32  1  0
  6 33  1  0
  7 22  1  0
  7 23  1  0
  8 10  1  0
  8 20  1  0
  8 21  1  0
  9 11  1  0
  9 36  1  0
  9 37  1  0
 10 12  1  0
 10 34  1  0
 10 35  1  0
 11 13  1  0
 11 28  1  0
 11 29  1  0
 12 13  1  0
 12 24  1  0
 12 25  1  0
 13 26  1  0
 13 27  1  0
M  CHG  1   1   1
M  RAD  1   1   2
M  END
$$$$
