
     RDKit          3D

 37 37  0  0  0  0  0  0  0  0999 V2000
    0.0045    0.0003   -3.1942 S   0  0  0  0  0  2  0  0  0  0  0  0
   -0.3467    2.0631   -3.4832 Si  0  0  0  0  0  4  0  0  0  0  0  0
   -1.0322   -1.2676   -4.5147 Si  0  0  0  0  0  4  0  0  0  0  0  0
   -2.9222   -0.4259   -5.2763 Si  0  0  0  0  0  4  0  0  0  0  0  0
   -3.7439   -1.8217   -6.8420 Si  0  0  0  0  0  4  0  0  0  0  0  0
    0.7491    2.6416   -6.9619 Si  0  0  0  0  0  4  0  0  0  0  0  0
    1.2167    2.9298   -4.8155 Si  0  0  0  0  0  4  0  0  0  0  0  0
   -5.2215   -0.6613   -8.0521 Si  0  0  0  0  0  4  0  0  0  0  0  0
   -0.3657    4.3846   -7.7664 Si  0  0  0  0  0  4  0  0  0  0  0  0
   -5.6355    1.3195   -7.1722 Si  0  0  0  0  0  4  0  0  0  0  0  0
   -1.3924    3.9112   -9.6802 Si  0  0  0  0  0  4  0  0  0  0  0  0
   -4.4934    2.9568   -8.0905 Si  0  0  0  0  0  4  0  0  0  0  0  0
   -2.8856    2.2747   -9.4390 Si  0  0  0  0  0  4  0  0  0  0  0  0
   -0.1691    2.8338   -1.9665 F   0  0  0  0  0  0  0  0  0  0  0  0
   -1.8950    2.4189   -4.0049 F   0  0  0  0  0  0  0  0  0  0  0  0
   -1.4075   -2.7149   -3.6896 F   0  0  0  0  0  0  0  0  0  0  0  0
   -0.0399   -1.7154   -5.8185 F   0  0  0  0  0  0  0  0  0  0  0  0
   -4.4265   -3.1755   -6.1404 F   0  0  0  0  0  0  0  0  0  0  0  0
   -2.4485   -2.2921   -7.8355 F   0  0  0  0  0  0  0  0  0  0  0  0
   -4.7347   -0.5714   -9.6635 F   0  0  0  0  0  0  0  0  0  0  0  0
   -6.6747   -1.5566   -8.0412 F   0  0  0  0  0  0  0  0  0  0  0  0
    1.2999    4.5904   -4.4807 F   0  0  0  0  0  0  0  0  0  0  0  0
    2.6946    2.2380   -4.3976 F   0  0  0  0  0  0  0  0  0  0  0  0
   -5.5351    3.9740   -8.9806 F   0  0  0  0  0  0  0  0  0  0  0  0
   -3.7931    3.9467   -6.8940 F   0  0  0  0  0  0  0  0  0  0  0  0
   -3.5551    1.9689  -10.9605 F   0  0  0  0  0  0  0  0  0  0  0  0
   -2.1555    0.8489   -8.9224 F   0  0  0  0  0  0  0  0  0  0  0  0
   -2.2178    5.2946  -10.1786 F   0  0  0  0  0  0  0  0  0  0  0  0
   -0.2415    3.5273  -10.8386 F   0  0  0  0  0  0  0  0  0  0  0  0
   -2.7496    1.0653   -5.9898 F   0  0  0  0  0  0  0  0  0  0  0  0
   -4.0438   -0.3973   -4.0026 F   0  0  0  0  0  0  0  0  0  0  0  0
   -0.0336    1.1851   -7.2641 F   0  0  0  0  0  0  0  0  0  0  0  0
    2.2422    2.5702   -7.7897 F   0  0  0  0  0  0  0  0  0  0  0  0
   -7.3021    1.6606   -7.3032 F   0  0  0  0  0  0  0  0  0  0  0  0
   -5.2976    1.2746   -5.5111 F   0  0  0  0  0  0  0  0  0  0  0  0
   -1.4416    4.9636   -6.6088 F   0  0  0  0  0  0  0  0  0  0  0  0
    0.7460    5.6162   -8.0777 F   0  0  0  0  0  0  0  0  0  0  0  0
  1  2  1  0
  1  3  1  0
  2  7  1  0
  2 14  1  0
  2 15  1  0
  3  4  1  0
  3 16  1  0
  3 17  1  0
  4  5  1  0
  4 30  1  0
  4 31  1  0
  5  8  1  0
  5 18  1  0
  5 19  1  0
  6  7  1  0
  6  9  1  0
  6 32  1  0
  6 33  1  0
  7 22  1  0
  7 23  1  0
  8 10  1  0
  8 20  1  0
  8 21  1  0
  9 11  1  0
  9 36  1  0
  9 37  1  0
 10 12  1  0
 10 34  1  0
 10 35  1  0
 11 13  1  0
 11 28  1  0
 11 29  1  0
 12 13  1  0
 12 24  1  0
 12 25  1  0
 13 26  1  0
 13 27  1  0
M  CHG  1   1   1
M  RAD  1   1   2
M  END
$$$$
