
     RDKit          3D

 37 37  0  0  0  0  0  0  0  0999 V2000
   -0.0274    0.6319   -3.1333 S   0  0  0  0  0  2  0  0  0  0  0  0
   -1.7403    0.5657   -4.3400 Si  0  0  0  0  0  4  0  0  0  0  0  0
    1.6395    1.6392   -3.9466 Si  0  0  0  0  0  4  0  0  0  0  0  0
    1.1390    3.2471   -5.3687 Si  0  0  0  0  0  4  0  0  0  0  0  0
    2.1812    3.0328   -7.3159 Si  0  0  0  0  0  4  0  0  0  0  0  0
   -3.9583   -1.6795   -6.1917 Si  0  0  0  0  0  4  0  0  0  0  0  0
   -2.6723   -1.4876   -4.3846 Si  0  0  0  0  0  4  0  0  0  0  0  0
    1.2265    1.6415   -8.7195 Si  0  0  0  0  0  4  0  0  0  0  0  0
   -2.8460   -2.6127   -7.8887 Si  0  0  0  0  0  4  0  0  0  0  0  0
    1.6307   -0.4782   -8.1615 Si  0  0  0  0  0  4  0  0  0  0  0  0
   -2.7954   -1.2691   -9.6254 Si  0  0  0  0  0  4  0  0  0  0  0  0
    0.8727   -1.9081   -9.6770 Si  0  0  0  0  0  4  0  0  0  0  0  0
   -0.9195   -1.2041  -10.7432 Si  0  0  0  0  0  4  0  0  0  0  0  0
   -1.4768    0.9858   -5.9390 F   0  0  0  0  0  0  0  0  0  0  0  0
   -2.9306    1.6229   -3.7353 F   0  0  0  0  0  0  0  0  0  0  0  0
    2.5516    2.2237   -2.6212 F   0  0  0  0  0  0  0  0  0  0  0  0
    2.7052    0.5646   -4.7408 F   0  0  0  0  0  0  0  0  0  0  0  0
    2.2292    4.5786   -8.0393 F   0  0  0  0  0  0  0  0  0  0  0  0
    3.7649    2.5661   -7.0488 F   0  0  0  0  0  0  0  0  0  0  0  0
   -0.4136    1.9296   -8.9280 F   0  0  0  0  0  0  0  0  0  0  0  0
    1.9553    1.8879  -10.2348 F   0  0  0  0  0  0  0  0  0  0  0  0
   -3.6430   -1.6651   -3.0134 F   0  0  0  0  0  0  0  0  0  0  0  0
   -1.4988   -2.6774   -4.3446 F   0  0  0  0  0  0  0  0  0  0  0  0
    2.1138   -2.1194  -10.8140 F   0  0  0  0  0  0  0  0  0  0  0  0
    0.6578   -3.4283   -8.9741 F   0  0  0  0  0  0  0  0  0  0  0  0
   -0.6387    0.3722  -11.2824 F   0  0  0  0  0  0  0  0  0  0  0  0
   -1.0822   -2.1411  -12.1577 F   0  0  0  0  0  0  0  0  0  0  0  0
   -4.0624   -1.6629  -10.6761 F   0  0  0  0  0  0  0  0  0  0  0  0
   -3.1657    0.3003   -9.0661 F   0  0  0  0  0  0  0  0  0  0  0  0
    1.6864    4.7086   -4.7096 F   0  0  0  0  0  0  0  0  0  0  0  0
   -0.5234    3.4554   -5.5638 F   0  0  0  0  0  0  0  0  0  0  0  0
   -4.4223   -0.1039   -6.6556 F   0  0  0  0  0  0  0  0  0  0  0  0
   -5.3521   -2.5085   -5.8074 F   0  0  0  0  0  0  0  0  0  0  0  0
    3.2975   -0.6219   -7.9271 F   0  0  0  0  0  0  0  0  0  0  0  0
    0.9052   -0.8387   -6.6879 F   0  0  0  0  0  0  0  0  0  0  0  0
   -3.7100   -4.0250   -8.3136 F   0  0  0  0  0  0  0  0  0  0  0  0
   -1.3298   -3.1468   -7.4015 F   0  0  0  0  0  0  0  0  0  0  0  0
  1  2  1  0
  1  3  1  0
  2  7  1  0
  2 14  1  0
  2 15  1  0
  3  4  1  0
  3 16  1  0
  3 17  1  0
  4  5  1  0
  4 30  1  0
  4 31  1  0
  5  8  1  0
  5 18  1  0
  5 19  1  0
  6  7  1  0
  6  9  1  0
  6 32  1  0
  6 33  1  0
  7 22  1  0
  7 23  1  0
  8 10  1  0
  8 20  1  0
  8 21  1  0
  9 11  1  0
  9 36  1  0
  9 37  1  0
 10 12  1  0
 10 34  1  0
 10 35  1  0
 11 13  1  0
 11 28  1  0
 11 29  1  0
 12 13  1  0
 12 24  1  0
 12 25  1  0
 13 26  1  0
 13 27  1  0
M  CHG  1   1   1
M  RAD  1   1   2
M  END
$$$$

     RDKit          3D

 37 37  0  0  0  0  0  0  0  0999 V2000
   -0.0274    0.6319   -3.1333 S   0  0  0  0  0  2  0  0  0  0  0  0
    0.3503    2.5191   -3.9641 Si  0  0  0  0  0  4  0  0  0  0  0  0
    0.0680   -1.0021   -4.4659 Si  0  0  0  0  0  4  0  0  0  0  0  0
    1.4347   -0.7195   -6.1719 Si  0  0  0  0  0  4  0  0  0  0  0  0
    0.4563   -1.0793   -8.1307 Si  0  0  0  0  0  4  0  0  0  0  0  0
   -1.1588    5.7672   -4.7133 Si  0  0  0  0  0  4  0  0  0  0  0  0
   -1.1399    4.0662   -3.2771 Si  0  0  0  0  0  4  0  0  0  0  0  0
   -0.6930    0.6210   -8.9087 Si  0  0  0  0  0  4  0  0  0  0  0  0
   -2.7627    5.5209   -6.2478 Si  0  0  0  0  0  4  0  0  0  0  0  0
   -2.6497    0.8246   -7.8609 Si  0  0  0  0  0  4  0  0  0  0  0  0
   -1.9107    5.4768   -8.2716 Si  0  0  0  0  0  4  0  0  0  0  0  0
   -3.9324    2.3894   -8.7674 Si  0  0  0  0  0  4  0  0  0  0  0  0
   -2.8037    4.0517   -9.6659 Si  0  0  0  0  0  4  0  0  0  0  0  0
    0.3152    2.5580   -5.6375 F   0  0  0  0  0  0  0  0  0  0  0  0
    1.8847    3.0802   -3.4835 F   0  0  0  0  0  0  0  0  0  0  0  0
    0.4931   -2.3713   -3.5305 F   0  0  0  0  0  0  0  0  0  0  0  0
   -1.4700   -1.3950   -5.0996 F   0  0  0  0  0  0  0  0  0  0  0  0
    1.6876   -1.4548   -9.2523 F   0  0  0  0  0  0  0  0  0  0  0  0
   -0.5322   -2.4238   -8.0182 F   0  0  0  0  0  0  0  0  0  0  0  0
    0.1683    2.0613   -8.9065 F   0  0  0  0  0  0  0  0  0  0  0  0
   -1.0505    0.2759  -10.5338 F   0  0  0  0  0  0  0  0  0  0  0  0
   -0.6536    4.6446   -1.7661 F   0  0  0  0  0  0  0  0  0  0  0  0
   -2.6621    3.3962   -3.1085 F   0  0  0  0  0  0  0  0  0  0  0  0
   -4.8290    1.6364   -9.9950 F   0  0  0  0  0  0  0  0  0  0  0  0
   -5.0794    2.9125   -7.6439 F   0  0  0  0  0  0  0  0  0  0  0  0
   -1.6004    3.4071  -10.6614 F   0  0  0  0  0  0  0  0  0  0  0  0
   -3.8568    4.8855  -10.7151 F   0  0  0  0  0  0  0  0  0  0  0  0
   -1.9720    7.0306   -8.9398 F   0  0  0  0  0  0  0  0  0  0  0  0
   -0.2457    5.1356   -8.1158 F   0  0  0  0  0  0  0  0  0  0  0  0
    2.6624   -1.8803   -6.0480 F   0  0  0  0  0  0  0  0  0  0  0  0
    2.2355    0.7644   -6.1312 F   0  0  0  0  0  0  0  0  0  0  0  0
    0.3502    5.7766   -5.5106 F   0  0  0  0  0  0  0  0  0  0  0  0
   -1.2839    7.2064   -3.8823 F   0  0  0  0  0  0  0  0  0  0  0  0
   -3.3866   -0.6954   -7.8832 F   0  0  0  0  0  0  0  0  0  0  0  0
   -2.4043    1.2161   -6.2441 F   0  0  0  0  0  0  0  0  0  0  0  0
   -3.7768    6.8900   -6.1100 F   0  0  0  0  0  0  0  0  0  0  0  0
   -3.7428    4.2026   -5.8969 F   0  0  0  0  0  0  0  0  0  0  0  0
  1  2  1  0
  1  3  1  0
  2  7  1  0
  2 14  1  0
  2 15  1  0
  3  4  1  0
  3 16  1  0
  3 17  1  0
  4  5  1  0
  4 30  1  0
  4 31  1  0
  5  8  1  0
  5 18  1  0
  5 19  1  0
  6  7  1  0
  6  9  1  0
  6 32  1  0
  6 33  1  0
  7 22  1  0
  7 23  1  0
  8 10  1  0
  8 20  1  0
  8 21  1  0
  9 11  1  0
  9 36  1  0
  9 37  1  0
 10 12  1  0
 10 34  1  0
 10 35  1  0
 11 13  1  0
 11 28  1  0
 11 29  1  0
 12 13  1  0
 12 24  1  0
 12 25  1  0
 13 26  1  0
 13 27  1  0
M  CHG  1   1   1
M  RAD  1   1   2
M  END
$$$$

     RDKit          3D

 37 37  0  0  0  0  0  0  0  0999 V2000
   -0.0274    0.6319   -3.1333 S   0  0  0  0  0  2  0  0  0  0  0  0
   -1.3219   -0.2716   -4.5127 Si  0  0  0  0  0  4  0  0  0  0  0  0
    0.9486    2.3843   -3.7901 Si  0  0  0  0  0  4  0  0  0  0  0  0
   -0.1634    3.5470   -5.2967 Si  0  0  0  0  0  4  0  0  0  0  0  0
    1.0336    3.9701   -7.1167 Si  0  0  0  0  0  4  0  0  0  0  0  0
   -1.8478   -3.2769   -6.5327 Si  0  0  0  0  0  4  0  0  0  0  0  0
   -1.0429   -2.5077   -4.6048 Si  0  0  0  0  0  4  0  0  0  0  0  0
    1.0904    2.3340   -8.5786 Si  0  0  0  0  0  4  0  0  0  0  0  0
   -0.2442   -3.4403   -8.0785 Si  0  0  0  0  0  4  0  0  0  0  0  0
    2.4755    0.7132   -7.9284 Si  0  0  0  0  0  4  0  0  0  0  0  0
   -0.7188   -2.2070   -9.8329 Si  0  0  0  0  0  4  0  0  0  0  0  0
    2.7308   -0.8501   -9.4798 Si  0  0  0  0  0  4  0  0  0  0  0  0
    0.9549   -1.1412  -10.7470 Si  0  0  0  0  0  4  0  0  0  0  0  0
   -1.1509    0.2783   -6.0847 F   0  0  0  0  0  0  0  0  0  0  0  0
   -2.9430   -0.0057   -4.0639 F   0  0  0  0  0  0  0  0  0  0  0  0
    1.2823    3.3115   -2.3905 F   0  0  0  0  0  0  0  0  0  0  0  0
    2.4926    2.0453   -4.4400 F   0  0  0  0  0  0  0  0  0  0  0  0
    0.3471    5.3404   -7.8690 F   0  0  0  0  0  0  0  0  0  0  0  0
    2.5920    4.3832   -6.6717 F   0  0  0  0  0  0  0  0  0  0  0  0
   -0.4293    1.7372   -8.9667 F   0  0  0  0  0  0  0  0  0  0  0  0
    1.7377    2.9738  -10.0138 F   0  0  0  0  0  0  0  0  0  0  0  0
   -1.9162   -3.2091   -3.3402 F   0  0  0  0  0  0  0  0  0  0  0  0
    0.5662   -2.9175   -4.4112 F   0  0  0  0  0  0  0  0  0  0  0  0
    4.0111   -0.3487  -10.4733 F   0  0  0  0  0  0  0  0  0  0  0  0
    3.2645   -2.2843   -8.7661 F   0  0  0  0  0  0  0  0  0  0  0  0
    0.4311    0.3696  -11.2924 F   0  0  0  0  0  0  0  0  0  0  0  0
    1.4492   -1.9783  -12.1471 F   0  0  0  0  0  0  0  0  0  0  0  0
   -1.4810   -3.1646  -11.0018 F   0  0  0  0  0  0  0  0  0  0  0  0
   -1.9051   -1.0769   -9.3551 F   0  0  0  0  0  0  0  0  0  0  0  0
   -0.5253    5.0573   -4.6198 F   0  0  0  0  0  0  0  0  0  0  0  0
   -1.6619    2.8700   -5.6719 F   0  0  0  0  0  0  0  0  0  0  0  0
   -3.0110   -2.1553   -7.0820 F   0  0  0  0  0  0  0  0  0  0  0  0
   -2.6401   -4.7208   -6.2777 F   0  0  0  0  0  0  0  0  0  0  0  0
    3.9402    1.4465   -7.5152 F   0  0  0  0  0  0  0  0  0  0  0  0
    1.8945   -0.0208   -6.5315 F   0  0  0  0  0  0  0  0  0  0  0  0
   -0.2007   -5.0805   -8.5574 F   0  0  0  0  0  0  0  0  0  0  0  0
    1.2692   -3.1273   -7.4204 F   0  0  0  0  0  0  0  0  0  0  0  0
  1  2  1  0
  1  3  1  0
  2  7  1  0
  2 14  1  0
  2 15  1  0
  3  4  1  0
  3 16  1  0
  3 17  1  0
  4  5  1  0
  4 30  1  0
  4 31  1  0
  5  8  1  0
  5 18  1  0
  5 19  1  0
  6  7  1  0
  6  9  1  0
  6 32  1  0
  6 33  1  0
  7 22  1  0
  7 23  1  0
  8 10  1  0
  8 20  1  0
  8 21  1  0
  9 11  1  0
  9 36  1  0
  9 37  1  0
 10 12  1  0
 10 34  1  0
 10 35  1  0
 11 13  1  0
 11 28  1  0
 11 29  1  0
 12 13  1  0
 12 24  1  0
 12 25  1  0
 13 26  1  0
 13 27  1  0
M  CHG  1   1   1
M  RAD  1   1   2
M  END
$$$$

     RDKit          3D

 37 37  0  0  0  0  0  0  0  0999 V2000
   -0.0274    0.6319   -3.1333 S   0  0  0  0  0  2  0  0  0  0  0  0
   -0.6290    2.4585   -3.9678 Si  0  0  0  0  0  4  0  0  0  0  0  0
    1.0660   -0.6508   -4.4037 Si  0  0  0  0  0  4  0  0  0  0  0  0
    2.2433    0.3777   -5.9575 Si  0  0  0  0  0  4  0  0  0  0  0  0
    1.8224   -0.3776   -8.0011 Si  0  0  0  0  0  4  0  0  0  0  0  0
   -3.5486    4.4269   -4.9629 Si  0  0  0  0  0  4  0  0  0  0  0  0
   -2.7779    2.9475   -3.4885 Si  0  0  0  0  0  4  0  0  0  0  0  0
    0.0336    0.4752   -8.9445 Si  0  0  0  0  0  4  0  0  0  0  0  0
   -4.6000    3.4190   -6.6559 Si  0  0  0  0  0  4  0  0  0  0  0  0
   -1.8282   -0.4331   -8.1220 Si  0  0  0  0  0  4  0  0  0  0  0  0
   -3.6464    3.9085   -8.5729 Si  0  0  0  0  0  4  0  0  0  0  0  0
   -3.6431    0.2387   -9.2040 Si  0  0  0  0  0  4  0  0  0  0  0  0
   -3.4872    2.2777  -10.0179 Si  0  0  0  0  0  4  0  0  0  0  0  0
   -0.5015    2.5326   -5.6354 F   0  0  0  0  0  0  0  0  0  0  0  0
    0.3081    3.7333   -3.3378 F   0  0  0  0  0  0  0  0  0  0  0  0
    2.0537   -1.6153   -3.3916 F   0  0  0  0  0  0  0  0  0  0  0  0
    0.0524   -1.7799   -5.1907 F   0  0  0  0  0  0  0  0  0  0  0  0
    3.1752    0.0015   -8.9714 F   0  0  0  0  0  0  0  0  0  0  0  0
    1.6984   -2.0451   -7.9613 F   0  0  0  0  0  0  0  0  0  0  0  0
   -0.0123    2.1518   -8.8867 F   0  0  0  0  0  0  0  0  0  0  0  0
    0.0905    0.0513  -10.5892 F   0  0  0  0  0  0  0  0  0  0  0  0
   -2.8390    3.6414   -1.9494 F   0  0  0  0  0  0  0  0  0  0  0  0
   -3.7155    1.5637   -3.4691 F   0  0  0  0  0  0  0  0  0  0  0  0
   -3.8632   -0.8316  -10.5016 F   0  0  0  0  0  0  0  0  0  0  0  0
   -5.0039    0.0293   -8.2265 F   0  0  0  0  0  0  0  0  0  0  0  0
   -2.0280    2.4099  -10.8590 F   0  0  0  0  0  0  0  0  0  0  0  0
   -4.7043    2.4591  -11.1974 F   0  0  0  0  0  0  0  0  0  0  0  0
   -4.4558    5.2133   -9.2848 F   0  0  0  0  0  0  0  0  0  0  0  0
   -2.0838    4.5018   -8.2276 F   0  0  0  0  0  0  0  0  0  0  0  0
    3.8796    0.0463   -5.6698 F   0  0  0  0  0  0  0  0  0  0  0  0
    2.1193    2.0575   -5.8691 F   0  0  0  0  0  0  0  0  0  0  0  0
   -2.2027    5.2677   -5.5909 F   0  0  0  0  0  0  0  0  0  0  0  0
   -4.5097    5.5471   -4.1889 F   0  0  0  0  0  0  0  0  0  0  0  0
   -1.6332   -2.1100   -8.1841 F   0  0  0  0  0  0  0  0  0  0  0  0
   -2.0029   -0.0293   -6.4990 F   0  0  0  0  0  0  0  0  0  0  0  0
   -6.1959    4.0310   -6.6658 F   0  0  0  0  0  0  0  0  0  0  0  0
   -4.7563    1.7696   -6.3791 F   0  0  0  0  0  0  0  0  0  0  0  0
  1  2  1  0
  1  3  1  0
  2  7  1  0
  2 14  1  0
  2 15  1  0
  3  4  1  0
  3 16  1  0
  3 17  1  0
  4  5  1  0
  4 30  1  0
  4 31  1  0
  5  8  1  0
  5 18  1  0
  5 19  1  0
  6  7  1  0
  6  9  1  0
  6 32  1  0
  6 33  1  0
  7 22  1  0
  7 23  1  0
  8 10  1  0
  8 20  1  0
  8 21  1  0
  9 11  1  0
  9 36  1  0
  9 37  1  0
 10 12  1  0
 10 34  1  0
 10 35  1  0
 11 13  1  0
 11 28  1  0
 11 29  1  0
 12 13  1  0
 12 24  1  0
 12 25  1  0
 13 26  1  0
 13 27  1  0
M  CHG  1   1   1
M  RAD  1   1   2
M  END
$$$$

     RDKit          3D

 37 37  0  0  0  0  0  0  0  0999 V2000
   -0.0274    0.6319   -3.1333 S   0  0  0  0  0  2  0  0  0  0  0  0
    2.0121    1.0101   -3.6159 Si  0  0  0  0  0  4  0  0  0  0  0  0
   -1.3523    1.2765   -4.7046 Si  0  0  0  0  0  4  0  0  0  0  0  0
   -2.0029   -0.5908   -5.7876 Si  0  0  0  0  0  4  0  0  0  0  0  0
   -3.0307   -0.0802   -7.6920 Si  0  0  0  0  0  4  0  0  0  0  0  0
    4.3388   -0.4061   -6.0920 Si  0  0  0  0  0  4  0  0  0  0  0  0
    3.0799   -0.8212   -4.2813 Si  0  0  0  0  0  4  0  0  0  0  0  0
   -1.6798    0.8520   -9.1674 Si  0  0  0  0  0  4  0  0  0  0  0  0
    3.0383   -0.1885   -7.8774 Si  0  0  0  0  0  4  0  0  0  0  0  0
   -0.4803   -0.5720  -10.3283 Si  0  0  0  0  0  4  0  0  0  0  0  0
    3.0560   -1.9979   -9.1628 Si  0  0  0  0  0  4  0  0  0  0  0  0
   -0.5554   -2.6431   -9.6138 Si  0  0  0  0  0  4  0  0  0  0  0  0
    1.3645   -3.3590   -8.7537 Si  0  0  0  0  0  4  0  0  0  0  0  0
    2.1716    2.2676   -4.7335 F   0  0  0  0  0  0  0  0  0  0  0  0
    2.7748    1.5470   -2.1856 F   0  0  0  0  0  0  0  0  0  0  0  0
   -0.5847    2.3275   -5.7661 F   0  0  0  0  0  0  0  0  0  0  0  0
   -2.7440    1.9712   -4.0505 F   0  0  0  0  0  0  0  0  0  0  0  0
   -3.8306   -1.4256   -8.2729 F   0  0  0  0  0  0  0  0  0  0  0  0
   -4.2334    1.0727   -7.3073 F   0  0  0  0  0  0  0  0  0  0  0  0
   -2.6449    1.8290  -10.1869 F   0  0  0  0  0  0  0  0  0  0  0  0
   -0.6819    1.9595   -8.3319 F   0  0  0  0  0  0  0  0  0  0  0  0
    2.0191   -2.0545   -4.6360 F   0  0  0  0  0  0  0  0  0  0  0  0
    4.1413   -1.3914   -3.0756 F   0  0  0  0  0  0  0  0  0  0  0  0
   -1.0028   -3.6559  -10.9165 F   0  0  0  0  0  0  0  0  0  0  0  0
   -1.7575   -2.8982   -8.4384 F   0  0  0  0  0  0  0  0  0  0  0  0
    1.7421   -4.8690   -9.4124 F   0  0  0  0  0  0  0  0  0  0  0  0
    1.2260   -3.6160   -7.0711 F   0  0  0  0  0  0  0  0  0  0  0  0
    4.4986   -2.8469   -8.8282 F   0  0  0  0  0  0  0  0  0  0  0  0
    3.0841   -1.6233  -10.7965 F   0  0  0  0  0  0  0  0  0  0  0  0
   -0.6551   -1.5371   -6.0039 F   0  0  0  0  0  0  0  0  0  0  0  0
   -3.1144   -1.3846   -4.7941 F   0  0  0  0  0  0  0  0  0  0  0  0
    5.1426    1.0479   -5.7990 F   0  0  0  0  0  0  0  0  0  0  0  0
    5.5003   -1.6044   -6.3024 F   0  0  0  0  0  0  0  0  0  0  0  0
   -0.9581   -0.4664  -11.9663 F   0  0  0  0  0  0  0  0  0  0  0  0
    1.1416   -0.0385  -10.3235 F   0  0  0  0  0  0  0  0  0  0  0  0
    3.6165    1.1101   -8.7886 F   0  0  0  0  0  0  0  0  0  0  0  0
    1.4644    0.1164   -7.3349 F   0  0  0  0  0  0  0  0  0  0  0  0
  1  2  1  0
  1  3  1  0
  2  7  1  0
  2 14  1  0
  2 15  1  0
  3  4  1  0
  3 16  1  0
  3 17  1  0
  4  5  1  0
  4 30  1  0
  4 31  1  0
  5  8  1  0
  5 18  1  0
  5 19  1  0
  6  7  1  0
  6  9  1  0
  6 32  1  0
  6 33  1  0
  7 22  1  0
  7 23  1  0
  8 10  1  0
  8 20  1  0
  8 21  1  0
  9 11  1  0
  9 36  1  0
  9 37  1  0
 10 12  1  0
 10 34  1  0
 10 35  1  0
 11 13  1  0
 11 28  1  0
 11 29  1  0
 12 13  1  0
 12 24  1  0
 12 25  1  0
 13 26  1  0
 13 27  1  0
M  CHG  1   1   1
M  RAD  1   1   2
M  END
$$$$

     RDKit          3D

 37 37  0  0  0  0  0  0  0  0999 V2000
   -0.0274    0.6319   -3.1333 S   0  0  0  0  0  2  0  0  0  0  0  0
   -0.7304   -0.6885   -4.6020 Si  0  0  0  0  0  4  0  0  0  0  0  0
    0.2068    2.6424   -3.7315 Si  0  0  0  0  0  4  0  0  0  0  0  0
   -1.1545    3.2882   -5.3402 Si  0  0  0  0  0  4  0  0  0  0  0  0
   -0.0879    4.1962   -7.0612 Si  0  0  0  0  0  4  0  0  0  0  0  0
    0.1681   -3.6076   -6.6171 Si  0  0  0  0  0  4  0  0  0  0  0  0
    0.4349   -2.6191   -4.6403 Si  0  0  0  0  0  4  0  0  0  0  0  0
    0.7431    2.7532   -8.4909 Si  0  0  0  0  0  4  0  0  0  0  0  0
    1.8200   -3.0774   -8.0234 Si  0  0  0  0  0  4  0  0  0  0  0  0
    2.6075    1.8165   -7.7069 Si  0  0  0  0  0  4  0  0  0  0  0  0
    1.0310   -2.1046   -9.8276 Si  0  0  0  0  0  4  0  0  0  0  0  0
    3.5972    0.5220   -9.2105 Si  0  0  0  0  0  4  0  0  0  0  0  0
    2.1991   -0.4350  -10.6154 Si  0  0  0  0  0  4  0  0  0  0  0  0
   -0.6698   -0.0839   -6.1620 F   0  0  0  0  0  0  0  0  0  0  0  0
   -2.3511   -1.1092   -4.2918 F   0  0  0  0  0  0  0  0  0  0  0  0
    0.0231    3.5961   -2.3220 F   0  0  0  0  0  0  0  0  0  0  0  0
    1.8031    2.9693   -4.2475 F   0  0  0  0  0  0  0  0  0  0  0  0
   -1.2063    5.1880   -7.8861 F   0  0  0  0  0  0  0  0  0  0  0  0
    1.1293    5.1941   -6.4952 F   0  0  0  0  0  0  0  0  0  0  0  0
   -0.3690    1.6017   -8.9946 F   0  0  0  0  0  0  0  0  0  0  0  0
    1.1903    3.6295   -9.8766 F   0  0  0  0  0  0  0  0  0  0  0  0
   -0.1797   -3.6395   -3.4423 F   0  0  0  0  0  0  0  0  0  0  0  0
    2.0509   -2.3482   -4.3093 F   0  0  0  0  0  0  0  0  0  0  0  0
    4.6415    1.5182  -10.1020 F   0  0  0  0  0  0  0  0  0  0  0  0
    4.6054   -0.5891   -8.4357 F   0  0  0  0  0  0  0  0  0  0  0  0
    1.1554    0.7467  -11.2226 F   0  0  0  0  0  0  0  0  0  0  0  0
    3.1009   -0.9719  -11.9585 F   0  0  0  0  0  0  0  0  0  0  0  0
    0.8178   -3.2639  -11.0421 F   0  0  0  0  0  0  0  0  0  0  0  0
   -0.5452   -1.5599   -9.4646 F   0  0  0  0  0  0  0  0  0  0  0  0
   -2.1492    4.5093   -4.7161 F   0  0  0  0  0  0  0  0  0  0  0  0
   -2.2160    2.0717   -5.8282 F   0  0  0  0  0  0  0  0  0  0  0  0
   -1.3006   -3.0400   -7.2756 F   0  0  0  0  0  0  0  0  0  0  0  0
    0.0089   -5.2534   -6.4085 F   0  0  0  0  0  0  0  0  0  0  0  0
    3.6125    3.0700   -7.1847 F   0  0  0  0  0  0  0  0  0  0  0  0
    2.2620    0.8816   -6.3526 F   0  0  0  0  0  0  0  0  0  0  0  0
    2.5611   -4.5501   -8.4746 F   0  0  0  0  0  0  0  0  0  0  0  0
    3.0193   -2.1938   -7.2473 F   0  0  0  0  0  0  0  0  0  0  0  0
  1  2  1  0
  1  3  1  0
  2  7  1  0
  2 14  1  0
  2 15  1  0
  3  4  1  0
  3 16  1  0
  3 17  1  0
  4  5  1  0
  4 30  1  0
  4 31  1  0
  5  8  1  0
  5 18  1  0
  5 19  1  0
  6  7  1  0
  6  9  1  0
  6 32  1  0
  6 33  1  0
  7 22  1  0
  7 23  1  0
  8 10  1  0
  8 20  1  0
  8 21  1  0
  9 11  1  0
  9 36  1  0
  9 37  1  0
 10 12  1  0
 10 34  1  0
 10 35  1  0
 11 13  1  0
 11 28  1  0
 11 29  1  0
 12 13  1  0
 12 24  1  0
 12 25  1  0
 13 26  1  0
 13 27  1  0
M  CHG  1   1   1
M  RAD  1   1   2
M  END
$$$$

     RDKit          3D

 37 37  0  0  0  0  0  0  0  0999 V2000
   -0.0274    0.6319   -3.1333 S   0  0  0  0  0  2  0  0  0  0  0  0
   -1.6349   -0.2744   -4.1823 Si  0  0  0  0  0  4  0  0  0  0  0  0
    0.3793    2.6258   -3.8522 Si  0  0  0  0  0  4  0  0  0  0  0  0
    2.4262    3.2619   -3.3217 Si  0  0  0  0  0  4  0  0  0  0  0  0
    3.8963    2.9397   -4.9268 Si  0  0  0  0  0  4  0  0  0  0  0  0
    0.3103   -2.9558   -5.7330 Si  0  0  0  0  0  4  0  0  0  0  0  0
   -1.3769   -2.5038   -4.3129 Si  0  0  0  0  0  4  0  0  0  0  0  0
    3.0024    2.1366   -6.7896 Si  0  0  0  0  0  4  0  0  0  0  0  0
    2.1375   -3.5718   -4.6553 Si  0  0  0  0  0  4  0  0  0  0  0  0
    4.6280    1.1668   -7.9565 Si  0  0  0  0  0  4  0  0  0  0  0  0
    3.6179   -1.9464   -4.4315 Si  0  0  0  0  0  4  0  0  0  0  0  0
    4.4754   -1.0576   -7.9283 Si  0  0  0  0  0  4  0  0  0  0  0  0
    5.1456   -1.9440   -6.0373 Si  0  0  0  0  0  4  0  0  0  0  0  0
   -3.1183    0.0447   -3.4574 F   0  0  0  0  0  0  0  0  0  0  0  0
   -1.7224    0.3084   -5.7765 F   0  0  0  0  0  0  0  0  0  0  0  0
   -0.7177    3.6536   -3.0444 F   0  0  0  0  0  0  0  0  0  0  0  0
    0.0828    2.7739   -5.4835 F   0  0  0  0  0  0  0  0  0  0  0  0
    5.1466    1.9134   -4.4200 F   0  0  0  0  0  0  0  0  0  0  0  0
    4.6411    4.4251   -5.3162 F   0  0  0  0  0  0  0  0  0  0  0  0
    1.7174    1.1108   -6.5140 F   0  0  0  0  0  0  0  0  0  0  0  0
    2.3929    3.4727   -7.6624 F   0  0  0  0  0  0  0  0  0  0  0  0
   -1.0880   -3.1657   -2.8075 F   0  0  0  0  0  0  0  0  0  0  0  0
   -2.8253   -3.1282   -4.9205 F   0  0  0  0  0  0  0  0  0  0  0  0
    5.5676   -1.5870   -9.1379 F   0  0  0  0  0  0  0  0  0  0  0  0
    2.9691   -1.5835   -8.4262 F   0  0  0  0  0  0  0  0  0  0  0  0
    6.5232   -1.1271   -5.5007 F   0  0  0  0  0  0  0  0  0  0  0  0
    5.6098   -3.5527   -6.3112 F   0  0  0  0  0  0  0  0  0  0  0  0
    4.4677   -2.2467   -2.9758 F   0  0  0  0  0  0  0  0  0  0  0  0
    2.8902   -0.4466   -4.2347 F   0  0  0  0  0  0  0  0  0  0  0  0
    2.3948    4.9058   -2.8645 F   0  0  0  0  0  0  0  0  0  0  0  0
    2.9433    2.4167   -1.9318 F   0  0  0  0  0  0  0  0  0  0  0  0
    0.5130   -1.6301   -6.7051 F   0  0  0  0  0  0  0  0  0  0  0  0
   -0.2058   -4.2532   -6.6995 F   0  0  0  0  0  0  0  0  0  0  0  0
    4.4826    1.6621   -9.5701 F   0  0  0  0  0  0  0  0  0  0  0  0
    6.1526    1.6064   -7.4183 F   0  0  0  0  0  0  0  0  0  0  0  0
    2.9067   -4.8846   -5.4272 F   0  0  0  0  0  0  0  0  0  0  0  0
    1.6869   -4.1233   -3.1249 F   0  0  0  0  0  0  0  0  0  0  0  0
  1  2  1  0
  1  3  1  0
  2  7  1  0
  2 14  1  0
  2 15  1  0
  3  4  1  0
  3 16  1  0
  3 17  1  0
  4  5  1  0
  4 30  1  0
  4 31  1  0
  5  8  1  0
  5 18  1  0
  5 19  1  0
  6  7  1  0
  6  9  1  0
  6 32  1  0
  6 33  1  0
  7 22  1  0
  7 23  1  0
  8 10  1  0
  8 20  1  0
  8 21  1  0
  9 11  1  0
  9 36  1  0
  9 37  1  0
 10 12  1  0
 10 34  1  0
 10 35  1  0
 11 13  1  0
 11 28  1  0
 11 29  1  0
 12 13  1  0
 12 24  1  0
 12 25  1  0
 13 26  1  0
 13 27  1  0
M  CHG  1   1   1
M  RAD  1   1   2
M  END
$$$$

     RDKit          3D

 37 37  0  0  0  0  0  0  0  0999 V2000
   -0.0274    0.6319   -3.1333 S   0  0  0  0  0  2  0  0  0  0  0  0
   -1.4343    0.4112   -4.7221 Si  0  0  0  0  0  4  0  0  0  0  0  0
    1.9707    0.2621   -3.7440 Si  0  0  0  0  0  4  0  0  0  0  0  0
    2.4619   -1.9373   -3.6651 Si  0  0  0  0  0  4  0  0  0  0  0  0
    2.2005   -2.7190   -5.7419 Si  0  0  0  0  0  4  0  0  0  0  0  0
   -3.0392   -2.7265   -5.8158 Si  0  0  0  0  0  4  0  0  0  0  0  0
   -2.9425   -1.1515   -4.2122 Si  0  0  0  0  0  4  0  0  0  0  0  0
    2.7483   -4.8840   -5.8561 Si  0  0  0  0  0  4  0  0  0  0  0  0
   -2.2486   -4.6047   -4.9769 Si  0  0  0  0  0  4  0  0  0  0  0  0
    2.1586   -5.7546   -7.7900 Si  0  0  0  0  0  4  0  0  0  0  0  0
   -1.6966   -6.1066   -6.4673 Si  0  0  0  0  0  4  0  0  0  0  0  0
    0.6446   -4.5851   -8.8785 Si  0  0  0  0  0  4  0  0  0  0  0  0
   -1.4327   -5.3102   -8.5058 Si  0  0  0  0  0  4  0  0  0  0  0  0
   -0.6951    0.1097   -6.1940 F   0  0  0  0  0  0  0  0  0  0  0  0
   -2.2560    1.8991   -4.8701 F   0  0  0  0  0  0  0  0  0  0  0  0
    2.3001    0.8911   -5.2568 F   0  0  0  0  0  0  0  0  0  0  0  0
    3.0148    1.0126   -2.6214 F   0  0  0  0  0  0  0  0  0  0  0  0
    3.0975   -1.7935   -6.7957 F   0  0  0  0  0  0  0  0  0  0  0  0
    0.5537   -2.6294   -6.0738 F   0  0  0  0  0  0  0  0  0  0  0  0
    4.4351   -4.9864   -5.6181 F   0  0  0  0  0  0  0  0  0  0  0  0
    2.0328   -5.6526   -4.5370 F   0  0  0  0  0  0  0  0  0  0  0  0
   -2.5368   -1.8388   -2.7224 F   0  0  0  0  0  0  0  0  0  0  0  0
   -4.4796   -0.4844   -4.0562 F   0  0  0  0  0  0  0  0  0  0  0  0
    0.9294   -4.7797  -10.5524 F   0  0  0  0  0  0  0  0  0  0  0  0
    0.7676   -2.9221   -8.5974 F   0  0  0  0  0  0  0  0  0  0  0  0
   -1.7396   -6.5842   -9.6012 F   0  0  0  0  0  0  0  0  0  0  0  0
   -2.5690   -4.1131   -8.8454 F   0  0  0  0  0  0  0  0  0  0  0  0
   -0.2881   -6.9128   -5.9600 F   0  0  0  0  0  0  0  0  0  0  0  0
   -2.9141   -7.3022   -6.5236 F   0  0  0  0  0  0  0  0  0  0  0  0
    4.0014   -2.1968   -3.0865 F   0  0  0  0  0  0  0  0  0  0  0  0
    1.3084   -2.6309   -2.6210 F   0  0  0  0  0  0  0  0  0  0  0  0
   -2.2010   -2.2120   -7.1863 F   0  0  0  0  0  0  0  0  0  0  0  0
   -4.6490   -2.9827   -6.2963 F   0  0  0  0  0  0  0  0  0  0  0  0
    1.6043   -7.3590   -7.6097 F   0  0  0  0  0  0  0  0  0  0  0  0
    3.5554   -5.8732   -8.7649 F   0  0  0  0  0  0  0  0  0  0  0  0
   -3.4199   -5.2456   -3.9143 F   0  0  0  0  0  0  0  0  0  0  0  0
   -0.8969   -4.2484   -4.0059 F   0  0  0  0  0  0  0  0  0  0  0  0
  1  2  1  0
  1  3  1  0
  2  7  1  0
  2 14  1  0
  2 15  1  0
  3  4  1  0
  3 16  1  0
  3 17  1  0
  4  5  1  0
  4 30  1  0
  4 31  1  0
  5  8  1  0
  5 18  1  0
  5 19  1  0
  6  7  1  0
  6  9  1  0
  6 32  1  0
  6 33  1  0
  7 22  1  0
  7 23  1  0
  8 10  1  0
  8 20  1  0
  8 21  1  0
  9 11  1  0
  9 36  1  0
  9 37  1  0
 10 12  1  0
 10 34  1  0
 10 35  1  0
 11 13  1  0
 11 28  1  0
 11 29  1  0
 12 13  1  0
 12 24  1  0
 12 25  1  0
 13 26  1  0
 13 27  1  0
M  CHG  1   1   1
M  RAD  1   1   2
M  END
$$$$

     RDKit          3D

 37 37  0  0  0  0  0  0  0  0999 V2000
   -0.0274    0.6319   -3.1333 S   0  0  0  0  0  2  0  0  0  0  0  0
    1.6909    0.9281   -4.2970 Si  0  0  0  0  0  4  0  0  0  0  0  0
   -1.8112    0.2530   -4.1960 Si  0  0  0  0  0  4  0  0  0  0  0  0
   -1.5280   -0.7306   -6.1481 Si  0  0  0  0  0  4  0  0  0  0  0  0
   -2.5074    0.3595   -7.8143 Si  0  0  0  0  0  4  0  0  0  0  0  0
    4.2254    3.3931   -5.2398 Si  0  0  0  0  0  4  0  0  0  0  0  0
    2.9051    2.6922   -3.5900 Si  0  0  0  0  0  4  0  0  0  0  0  0
   -1.3495    2.0429   -8.6159 Si  0  0  0  0  0  4  0  0  0  0  0  0
    3.2757    5.0514   -6.3956 Si  0  0  0  0  0  4  0  0  0  0  0  0
   -1.4551    3.8148   -7.2679 Si  0  0  0  0  0  4  0  0  0  0  0  0
    3.0544    4.5051   -8.5113 Si  0  0  0  0  0  4  0  0  0  0  0  0
   -0.4851    5.6032   -8.1490 Si  0  0  0  0  0  4  0  0  0  0  0  0
    1.2008    5.1318   -9.4831 Si  0  0  0  0  0  4  0  0  0  0  0  0
    1.3883    1.1994   -5.9211 F   0  0  0  0  0  0  0  0  0  0  0  0
    2.7124   -0.4311   -4.1994 F   0  0  0  0  0  0  0  0  0  0  0  0
   -2.8117   -0.6700   -3.1581 F   0  0  0  0  0  0  0  0  0  0  0  0
   -2.7048    1.6845   -4.4672 F   0  0  0  0  0  0  0  0  0  0  0  0
   -2.7662   -0.7639   -9.0737 F   0  0  0  0  0  0  0  0  0  0  0  0
   -4.0119    0.8956   -7.3177 F   0  0  0  0  0  0  0  0  0  0  0  0
    0.2354    1.6393   -8.9923 F   0  0  0  0  0  0  0  0  0  0  0  0
   -2.0890    2.5031  -10.0752 F   0  0  0  0  0  0  0  0  0  0  0  0
    3.8759    2.1922   -2.3009 F   0  0  0  0  0  0  0  0  0  0  0  0
    1.9119    3.9204   -3.0429 F   0  0  0  0  0  0  0  0  0  0  0  0
   -1.6710    6.4037   -9.0605 F   0  0  0  0  0  0  0  0  0  0  0  0
   -0.0647    6.6887   -6.9258 F   0  0  0  0  0  0  0  0  0  0  0  0
    0.7053    3.9407  -10.5740 F   0  0  0  0  0  0  0  0  0  0  0  0
    1.5106    6.5121  -10.4340 F   0  0  0  0  0  0  0  0  0  0  0  0
    4.3761    5.0999   -9.3852 F   0  0  0  0  0  0  0  0  0  0  0  0
    3.1921    2.8071   -8.6160 F   0  0  0  0  0  0  0  0  0  0  0  0
   -2.2845   -2.2448   -6.0781 F   0  0  0  0  0  0  0  0  0  0  0  0
    0.0901   -1.0696   -6.4825 F   0  0  0  0  0  0  0  0  0  0  0  0
    4.4663    2.0729   -6.2943 F   0  0  0  0  0  0  0  0  0  0  0  0
    5.7183    3.8122   -4.6289 F   0  0  0  0  0  0  0  0  0  0  0  0
   -3.0872    4.0802   -6.9220 F   0  0  0  0  0  0  0  0  0  0  0  0
   -0.7023    3.4752   -5.8031 F   0  0  0  0  0  0  0  0  0  0  0  0
    4.3360    6.3873   -6.2827 F   0  0  0  0  0  0  0  0  0  0  0  0
    1.8452    5.5547   -5.6731 F   0  0  0  0  0  0  0  0  0  0  0  0
  1  2  1  0
  1  3  1  0
  2  7  1  0
  2 14  1  0
  2 15  1  0
  3  4  1  0
  3 16  1  0
  3 17  1  0
  4  5  1  0
  4 30  1  0
  4 31  1  0
  5  8  1  0
  5 18  1  0
  5 19  1  0
  6  7  1  0
  6  9  1  0
  6 32  1  0
  6 33  1  0
  7 22  1  0
  7 23  1  0
  8 10  1  0
  8 20  1  0
  8 21  1  0
  9 11  1  0
  9 36  1  0
  9 37  1  0
 10 12  1  0
 10 34  1  0
 10 35  1  0
 11 13  1  0
 11 28  1  0
 11 29  1  0
 12 13  1  0
 12 24  1  0
 12 25  1  0
 13 26  1  0
 13 27  1  0
M  CHG  1   1   1
M  RAD  1   1   2
M  END
$$$$

     RDKit          3D

 37 37  0  0  0  0  0  0  0  0999 V2000
   -0.0274    0.6319   -3.1333 S   0  0  0  0  0  2  0  0  0  0  0  0
   -1.4605    0.4844   -4.7071 Si  0  0  0  0  0  4  0  0  0  0  0  0
    1.9422    0.1585   -3.7646 Si  0  0  0  0  0  4  0  0  0  0  0  0
    2.3191   -2.0635   -3.6893 Si  0  0  0  0  0  4  0  0  0  0  0  0
    1.9956   -2.8308   -5.7626 Si  0  0  0  0  0  4  0  0  0  0  0  0
   -3.2379   -2.5657   -5.7816 Si  0  0  0  0  0  4  0  0  0  0  0  0
   -3.0425   -0.9976   -4.1802 Si  0  0  0  0  0  4  0  0  0  0  0  0
    2.4288   -5.0215   -5.8810 Si  0  0  0  0  0  4  0  0  0  0  0  0
   -2.5373   -4.4824   -4.9497 Si  0  0  0  0  0  4  0  0  0  0  0  0
    1.7743   -5.8605   -7.8080 Si  0  0  0  0  0  4  0  0  0  0  0  0
   -2.0799   -6.0112   -6.4446 Si  0  0  0  0  0  4  0  0  0  0  0  0
    0.3118   -4.6141   -8.8814 Si  0  0  0  0  0  4  0  0  0  0  0  0
   -1.7964   -5.2300   -8.4864 Si  0  0  0  0  0  4  0  0  0  0  0  0
   -0.7535    0.1446   -6.1865 F   0  0  0  0  0  0  0  0  0  0  0  0
   -2.2052    2.0130   -4.8476 F   0  0  0  0  0  0  0  0  0  0  0  0
    2.2879    0.7693   -5.2813 F   0  0  0  0  0  0  0  0  0  0  0  0
    3.0357    0.8539   -2.6536 F   0  0  0  0  0  0  0  0  0  0  0  0
    2.9284   -1.9535   -6.8265 F   0  0  0  0  0  0  0  0  0  0  0  0
    0.3523   -2.6557   -6.0774 F   0  0  0  0  0  0  0  0  0  0  0  0
    4.1104   -5.2115   -5.6606 F   0  0  0  0  0  0  0  0  0  0  0  0
    1.6881   -5.7516   -4.5539 F   0  0  0  0  0  0  0  0  0  0  0  0
   -2.6575   -1.7048   -2.6943 F   0  0  0  0  0  0  0  0  0  0  0  0
   -4.5411   -0.2514   -4.0087 F   0  0  0  0  0  0  0  0  0  0  0  0
    0.5685   -4.8235  -10.5580 F   0  0  0  0  0  0  0  0  0  0  0  0
    0.5241   -2.9596   -8.6028 F   0  0  0  0  0  0  0  0  0  0  0  0
   -2.1807   -6.4865   -9.5776 F   0  0  0  0  0  0  0  0  0  0  0  0
   -2.8724   -3.9755   -8.8150 F   0  0  0  0  0  0  0  0  0  0  0  0
   -0.7100   -6.8896   -5.9515 F   0  0  0  0  0  0  0  0  0  0  0  0
   -3.3585   -7.1419   -6.4873 F   0  0  0  0  0  0  0  0  0  0  0  0
    3.8490   -2.4026   -3.1267 F   0  0  0  0  0  0  0  0  0  0  0  0
    1.1421   -2.6959   -2.6327 F   0  0  0  0  0  0  0  0  0  0  0  0
   -2.3885   -2.0958   -7.1612 F   0  0  0  0  0  0  0  0  0  0  0  0
   -4.8638   -2.7379   -6.2450 F   0  0  0  0  0  0  0  0  0  0  0  0
    1.1392   -7.4339   -7.6208 F   0  0  0  0  0  0  0  0  0  0  0  0
    3.1527   -6.0518   -8.7974 F   0  0  0  0  0  0  0  0  0  0  0  0
   -3.7291   -5.0613   -3.8744 F   0  0  0  0  0  0  0  0  0  0  0  0
   -1.1588   -4.1967   -3.9932 F   0  0  0  0  0  0  0  0  0  0  0  0
  1  2  1  0
  1  3  1  0
  2  7  1  0
  2 14  1  0
  2 15  1  0
  3  4  1  0
  3 16  1  0
  3 17  1  0
  4  5  1  0
  4 30  1  0
  4 31  1  0
  5  8  1  0
  5 18  1  0
  5 19  1  0
  6  7  1  0
  6  9  1  0
  6 32  1  0
  6 33  1  0
  7 22  1  0
  7 23  1  0
  8 10  1  0
  8 20  1  0
  8 21  1  0
  9 11  1  0
  9 36  1  0
  9 37  1  0
 10 12  1  0
 10 34  1  0
 10 35  1  0
 11 13  1  0
 11 28  1  0
 11 29  1  0
 12 13  1  0
 12 24  1  0
 12 25  1  0
 13 26  1  0
 13 27  1  0
M  CHG  1   1   1
M  RAD  1   1   2
M  END
$$$$

     RDKit          3D

 37 37  0  0  0  0  0  0  0  0999 V2000
   -0.0274    0.6319   -3.1333 S   0  0  0  0  0  2  0  0  0  0  0  0
    1.6917    0.8380   -4.3152 Si  0  0  0  0  0  4  0  0  0  0  0  0
   -1.8396    0.3462   -4.1770 Si  0  0  0  0  0  4  0  0  0  0  0  0
   -1.6284   -0.6512   -6.1312 Si  0  0  0  0  0  4  0  0  0  0  0  0
   -2.5673    0.4880   -7.7878 Si  0  0  0  0  0  4  0  0  0  0  0  0
    4.3409    3.1677   -5.2863 Si  0  0  0  0  0  4  0  0  0  0  0  0
    3.0034    2.5367   -3.6222 Si  0  0  0  0  0  4  0  0  0  0  0  0
   -1.3319    2.1087   -8.6028 Si  0  0  0  0  0  4  0  0  0  0  0  0
    3.4667    4.8729   -6.4333 Si  0  0  0  0  0  4  0  0  0  0  0  0
   -1.3310    3.8840   -7.2550 Si  0  0  0  0  0  4  0  0  0  0  0  0
    3.1950    4.3385   -8.5462 Si  0  0  0  0  0  4  0  0  0  0  0  0
   -0.2786    5.6194   -8.1476 Si  0  0  0  0  0  4  0  0  0  0  0  0
    1.3665    5.0606   -9.4989 Si  0  0  0  0  0  4  0  0  0  0  0  0
    1.3865    1.1245   -5.9362 F   0  0  0  0  0  0  0  0  0  0  0  0
    2.6420   -0.5724   -4.2273 F   0  0  0  0  0  0  0  0  0  0  0  0
   -2.8758   -0.5233   -3.1280 F   0  0  0  0  0  0  0  0  0  0  0  0
   -2.6603    1.8222   -4.4398 F   0  0  0  0  0  0  0  0  0  0  0  0
   -2.8974   -0.6206   -9.0436 F   0  0  0  0  0  0  0  0  0  0  0  0
   -4.0365    1.1018   -7.2758 F   0  0  0  0  0  0  0  0  0  0  0  0
    0.2258    1.6232   -8.9955 F   0  0  0  0  0  0  0  0  0  0  0  0
   -2.0617    2.6066  -10.0545 F   0  0  0  0  0  0  0  0  0  0  0  0
    3.9603    1.9872   -2.3430 F   0  0  0  0  0  0  0  0  0  0  0  0
    2.0812    3.8150   -3.0656 F   0  0  0  0  0  0  0  0  0  0  0  0
   -1.4307    6.4803   -9.0472 F   0  0  0  0  0  0  0  0  0  0  0  0
    0.2106    6.6817   -6.9296 F   0  0  0  0  0  0  0  0  0  0  0  0
    0.7982    3.8968  -10.5837 F   0  0  0  0  0  0  0  0  0  0  0  0
    1.7376    6.4227  -10.4540 F   0  0  0  0  0  0  0  0  0  0  0  0
    4.5366    4.8635   -9.4343 F   0  0  0  0  0  0  0  0  0  0  0  0
    3.2431    2.6356   -8.6510 F   0  0  0  0  0  0  0  0  0  0  0  0
   -2.4619   -2.1240   -6.0522 F   0  0  0  0  0  0  0  0  0  0  0  0
   -0.0338   -1.0740   -6.4823 F   0  0  0  0  0  0  0  0  0  0  0  0
    4.5018    1.8366   -6.3423 F   0  0  0  0  0  0  0  0  0  0  0  0
    5.8600    3.5086   -4.6914 F   0  0  0  0  0  0  0  0  0  0  0  0
   -2.9433    4.2340   -6.8922 F   0  0  0  0  0  0  0  0  0  0  0  0
   -0.5815    3.5060   -5.7979 F   0  0  0  0  0  0  0  0  0  0  0  0
    4.5962    6.1519   -6.3325 F   0  0  0  0  0  0  0  0  0  0  0  0
    2.0720    5.4501   -5.6962 F   0  0  0  0  0  0  0  0  0  0  0  0
  1  2  1  0
  1  3  1  0
  2  7  1  0
  2 14  1  0
  2 15  1  0
  3  4  1  0
  3 16  1  0
  3 17  1  0
  4  5  1  0
  4 30  1  0
  4 31  1  0
  5  8  1  0
  5 18  1  0
  5 19  1  0
  6  7  1  0
  6  9  1  0
  6 32  1  0
  6 33  1  0
  7 22  1  0
  7 23  1  0
  8 10  1  0
  8 20  1  0
  8 21  1  0
  9 11  1  0
  9 36  1  0
  9 37  1  0
 10 12  1  0
 10 34  1  0
 10 35  1  0
 11 13  1  0
 11 28  1  0
 11 29  1  0
 12 13  1  0
 12 24  1  0
 12 25  1  0
 13 26  1  0
 13 27  1  0
M  CHG  1   1   1
M  RAD  1   1   2
M  END
$$$$

     RDKit          3D

 37 37  0  0  0  0  0  0  0  0999 V2000
   -0.0274    0.6319   -3.1333 S   0  0  0  0  0  2  0  0  0  0  0  0
   -1.3423   -0.2490   -4.5080 Si  0  0  0  0  0  4  0  0  0  0  0  0
    0.9767    2.3669   -3.7939 Si  0  0  0  0  0  4  0  0  0  0  0  0
   -0.1201    3.5487   -5.2968 Si  0  0  0  0  0  4  0  0  0  0  0  0
    1.0777    3.9506   -7.1210 Si  0  0  0  0  0  4  0  0  0  0  0  0
   -1.9277   -3.2449   -6.5255 Si  0  0  0  0  0  4  0  0  0  0  0  0
   -1.1027   -2.4896   -4.6006 Si  0  0  0  0  0  4  0  0  0  0  0  0
    1.1008    2.3135   -8.5828 Si  0  0  0  0  0  4  0  0  0  0  0  0
   -0.3328   -3.4365   -8.0770 Si  0  0  0  0  0  4  0  0  0  0  0  0
    2.4596    0.6689   -7.9372 Si  0  0  0  0  0  4  0  0  0  0  0  0
   -0.7919   -2.1953   -9.8299 Si  0  0  0  0  0  4  0  0  0  0  0  0
    2.6820   -0.8988   -9.4892 Si  0  0  0  0  0  4  0  0  0  0  0  0
    0.8969   -1.1591  -10.7501 Si  0  0  0  0  0  4  0  0  0  0  0  0
   -1.1673    0.2976   -6.0807 F   0  0  0  0  0  0  0  0  0  0  0  0
   -2.9569    0.0452   -4.0535 F   0  0  0  0  0  0  0  0  0  0  0  0
    1.3315    3.2883   -2.3956 F   0  0  0  0  0  0  0  0  0  0  0  0
    2.5122    2.0009   -4.4492 F   0  0  0  0  0  0  0  0  0  0  0  0
    0.4126    5.3326   -7.8711 F   0  0  0  0  0  0  0  0  0  0  0  0
    2.6447    4.3364   -6.6816 F   0  0  0  0  0  0  0  0  0  0  0  0
   -0.4305    1.7433   -8.9655 F   0  0  0  0  0  0  0  0  0  0  0  0
    1.7540    2.9417  -10.0204 F   0  0  0  0  0  0  0  0  0  0  0  0
   -1.9838   -3.1755   -3.3328 F   0  0  0  0  0  0  0  0  0  0  0  0
    0.4996   -2.9275   -4.4126 F   0  0  0  0  0  0  0  0  0  0  0  0
    3.9675   -0.4201  -10.4873 F   0  0  0  0  0  0  0  0  0  0  0  0
    3.1932   -2.3421   -8.7771 F   0  0  0  0  0  0  0  0  0  0  0  0
    0.3977    0.3606  -11.2939 F   0  0  0  0  0  0  0  0  0  0  0  0
    1.3716   -2.0048  -12.1518 F   0  0  0  0  0  0  0  0  0  0  0  0
   -1.5749   -3.1396  -10.9960 F   0  0  0  0  0  0  0  0  0  0  0  0
   -1.9566   -1.0446   -9.3482 F   0  0  0  0  0  0  0  0  0  0  0  0
   -0.4531    5.0651   -4.6188 F   0  0  0  0  0  0  0  0  0  0  0  0
   -1.6315    2.8979   -5.6666 F   0  0  0  0  0  0  0  0  0  0  0  0
   -3.0731   -2.1033   -7.0710 F   0  0  0  0  0  0  0  0  0  0  0  0
   -2.7443   -4.6747   -6.2675 F   0  0  0  0  0  0  0  0  0  0  0  0
    3.9384    1.3765   -7.5294 F   0  0  0  0  0  0  0  0  0  0  0  0
    1.8708   -0.0547   -6.5381 F   0  0  0  0  0  0  0  0  0  0  0  0
   -0.3196   -5.0773   -8.5557 F   0  0  0  0  0  0  0  0  0  0  0  0
    1.1882   -3.1499   -7.4242 F   0  0  0  0  0  0  0  0  0  0  0  0
  1  2  1  0
  1  3  1  0
  2  7  1  0
  2 14  1  0
  2 15  1  0
  3  4  1  0
  3 16  1  0
  3 17  1  0
  4  5  1  0
  4 30  1  0
  4 31  1  0
  5  8  1  0
  5 18  1  0
  5 19  1  0
  6  7  1  0
  6  9  1  0
  6 32  1  0
  6 33  1  0
  7 22  1  0
  7 23  1  0
  8 10  1  0
  8 20  1  0
  8 21  1  0
  9 11  1  0
  9 36  1  0
  9 37  1  0
 10 12  1  0
 10 34  1  0
 10 35  1  0
 11 13  1  0
 11 28  1  0
 11 29  1  0
 12 13  1  0
 12 24  1  0
 12 25  1  0
 13 26  1  0
 13 27  1  0
M  CHG  1   1   1
M  RAD  1   1   2
M  END
$$$$
