
     RDKit          3D

 37 37  0  0  0  0  0  0  0  0999 V2000
    0.1944   -0.6356   -4.1650 S   0  0  0  0  0  2  0  0  0  0  0  0
   -0.6662   -1.6171   -5.8355 Si  0  0  0  0  0  4  0  0  0  0  0  0
    2.0497    0.2918   -4.5891 Si  0  0  0  0  0  4  0  0  0  0  0  0
    2.3984    0.4199   -6.7706 Si  0  0  0  0  0  4  0  0  0  0  0  0
    3.9423    1.9744   -7.2629 Si  0  0  0  0  0  4  0  0  0  0  0  0
   -2.6794    0.9052   -7.6218 Si  0  0  0  0  0  4  0  0  0  0  0  0
   -2.7358   -0.8922   -6.2600 Si  0  0  0  0  0  4  0  0  0  0  0  0
    2.9310    3.9148   -7.7047 Si  0  0  0  0  0  4  0  0  0  0  0  0
   -2.0688    0.3890   -9.6511 Si  0  0  0  0  0  4  0  0  0  0  0  0
    2.6833    4.2236   -9.8999 Si  0  0  0  0  0  4  0  0  0  0  0  0
   -0.7383    1.8304  -10.6393 Si  0  0  0  0  0  4  0  0  0  0  0  0
    0.7462    5.2015  -10.3816 Si  0  0  0  0  0  4  0  0  0  0  0  0
   -1.0063    3.9175   -9.9924 Si  0  0  0  0  0  4  0  0  0  0  0  0
   -0.7975   -3.2762   -5.4520 F   0  0  0  0  0  0  0  0  0  0  0  0
    0.2638   -1.5134   -7.2220 F   0  0  0  0  0  0  0  0  0  0  0  0
    1.9920    1.8837   -3.9801 F   0  0  0  0  0  0  0  0  0  0  0  0
    3.3545   -0.4981   -3.8755 F   0  0  0  0  0  0  0  0  0  0  0  0
    4.9791    2.0888   -5.9608 F   0  0  0  0  0  0  0  0  0  0  0  0
    4.7871    1.4933   -8.6360 F   0  0  0  0  0  0  0  0  0  0  0  0
    3.8470    5.1434   -7.0076 F   0  0  0  0  0  0  0  0  0  0  0  0
    1.3898    3.9274   -6.9993 F   0  0  0  0  0  0  0  0  0  0  0  0
   -3.7119   -2.0901   -6.8832 F   0  0  0  0  0  0  0  0  0  0  0  0
   -3.4086   -0.3684   -4.8039 F   0  0  0  0  0  0  0  0  0  0  0  0
    0.6255    6.5966   -9.4300 F   0  0  0  0  0  0  0  0  0  0  0  0
    0.7936    5.7173  -11.9928 F   0  0  0  0  0  0  0  0  0  0  0  0
   -1.4277    4.0651   -8.3723 F   0  0  0  0  0  0  0  0  0  0  0  0
   -2.3164    4.5742  -10.8739 F   0  0  0  0  0  0  0  0  0  0  0  0
   -1.0434    1.7659  -12.3207 F   0  0  0  0  0  0  0  0  0  0  0  0
    0.8726    1.3076  -10.4679 F   0  0  0  0  0  0  0  0  0  0  0  0
    0.9841    0.9174   -7.4955 F   0  0  0  0  0  0  0  0  0  0  0  0
    2.9475   -1.0442   -7.4119 F   0  0  0  0  0  0  0  0  0  0  0  0
   -4.2709    1.5158   -7.6524 F   0  0  0  0  0  0  0  0  0  0  0  0
   -1.7270    2.0338   -6.8602 F   0  0  0  0  0  0  0  0  0  0  0  0
    3.9022    5.3017  -10.3867 F   0  0  0  0  0  0  0  0  0  0  0  0
    2.9153    2.8059  -10.7596 F   0  0  0  0  0  0  0  0  0  0  0  0
   -1.2884   -1.1299   -9.6260 F   0  0  0  0  0  0  0  0  0  0  0  0
   -3.4585    0.1609  -10.6176 F   0  0  0  0  0  0  0  0  0  0  0  0
  1  2  1  0
  1  3  1  0
  2  7  1  0
  2 14  1  0
  2 15  1  0
  3  4  1  0
  3 16  1  0
  3 17  1  0
  4  5  1  0
  4 30  1  0
  4 31  1  0
  5  8  1  0
  5 18  1  0
  5 19  1  0
  6  7  1  0
  6  9  1  0
  6 32  1  0
  6 33  1  0
  7 22  1  0
  7 23  1  0
  8 10  1  0
  8 20  1  0
  8 21  1  0
  9 11  1  0
  9 36  1  0
  9 37  1  0
 10 12  1  0
 10 34  1  0
 10 35  1  0
 11 13  1  0
 11 28  1  0
 11 29  1  0
 12 13  1  0
 12 24  1  0
 12 25  1  0
 13 26  1  0
 13 27  1  0
M  CHG  1   1   1
M  RAD  1   1   2
M  END
$$$$

     RDKit          3D

 37 37  0  0  0  0  0  0  0  0999 V2000
    0.1944   -0.6356   -4.1650 S   0  0  0  0  0  2  0  0  0  0  0  0
   -0.9821    0.1624   -5.7344 Si  0  0  0  0  0  4  0  0  0  0  0  0
    1.9467   -1.6195   -4.8119 Si  0  0  0  0  0  4  0  0  0  0  0  0
    1.7109   -3.8169   -4.9732 Si  0  0  0  0  0  4  0  0  0  0  0  0
    0.9354   -4.4226   -6.9796 Si  0  0  0  0  0  4  0  0  0  0  0  0
   -1.0490    1.7699   -8.9600 Si  0  0  0  0  0  4  0  0  0  0  0  0
    0.1114    1.5721   -7.0339 Si  0  0  0  0  0  4  0  0  0  0  0  0
    2.3431   -3.8685   -8.5807 Si  0  0  0  0  0  4  0  0  0  0  0  0
   -1.8144   -0.2924   -9.4525 Si  0  0  0  0  0  4  0  0  0  0  0  0
    1.3432   -3.6120  -10.5496 Si  0  0  0  0  0  4  0  0  0  0  0  0
   -2.1224   -0.5443  -11.6245 Si  0  0  0  0  0  4  0  0  0  0  0  0
    1.4193   -1.5090  -11.2612 Si  0  0  0  0  0  4  0  0  0  0  0  0
   -0.2702   -1.1523  -12.6646 Si  0  0  0  0  0  4  0  0  0  0  0  0
   -2.2706    1.0208   -5.0226 F   0  0  0  0  0  0  0  0  0  0  0  0
   -1.7122   -1.0703   -6.6600 F   0  0  0  0  0  0  0  0  0  0  0  0
    3.1630   -1.3323   -3.6458 F   0  0  0  0  0  0  0  0  0  0  0  0
    2.5461   -1.0161   -6.2643 F   0  0  0  0  0  0  0  0  0  0  0  0
   -0.5961   -3.8062   -7.1784 F   0  0  0  0  0  0  0  0  0  0  0  0
    0.7978   -6.1230   -6.9583 F   0  0  0  0  0  0  0  0  0  0  0  0
    3.4817   -5.1319   -8.7330 F   0  0  0  0  0  0  0  0  0  0  0  0
    3.2188   -2.4749   -8.2446 F   0  0  0  0  0  0  0  0  0  0  0  0
    1.6654    1.0982   -7.3850 F   0  0  0  0  0  0  0  0  0  0  0  0
    0.1888    3.1347   -6.3658 F   0  0  0  0  0  0  0  0  0  0  0  0
    2.8617   -1.3311  -12.1573 F   0  0  0  0  0  0  0  0  0  0  0  0
    1.4755   -0.4012  -10.0197 F   0  0  0  0  0  0  0  0  0  0  0  0
    0.1182    0.0435  -13.8025 F   0  0  0  0  0  0  0  0  0  0  0  0
   -0.5340   -2.5803  -13.5273 F   0  0  0  0  0  0  0  0  0  0  0  0
   -2.7639    0.8999  -12.2460 F   0  0  0  0  0  0  0  0  0  0  0  0
   -3.3252   -1.7307  -11.8533 F   0  0  0  0  0  0  0  0  0  0  0  0
    0.7539   -4.4342   -3.7479 F   0  0  0  0  0  0  0  0  0  0  0  0
    3.2538   -4.5110   -4.8025 F   0  0  0  0  0  0  0  0  0  0  0  0
   -2.3645    2.7757   -8.7460 F   0  0  0  0  0  0  0  0  0  0  0  0
   -0.0522    2.2484  -10.2080 F   0  0  0  0  0  0  0  0  0  0  0  0
   -0.2757   -4.0914  -10.4646 F   0  0  0  0  0  0  0  0  0  0  0  0
    2.0791   -4.5805  -11.7358 F   0  0  0  0  0  0  0  0  0  0  0  0
   -3.2631   -0.5932   -8.6443 F   0  0  0  0  0  0  0  0  0  0  0  0
   -0.6253   -1.3706   -8.9469 F   0  0  0  0  0  0  0  0  0  0  0  0
  1  2  1  0
  1  3  1  0
  2  7  1  0
  2 14  1  0
  2 15  1  0
  3  4  1  0
  3 16  1  0
  3 17  1  0
  4  5  1  0
  4 30  1  0
  4 31  1  0
  5  8  1  0
  5 18  1  0
  5 19  1  0
  6  7  1  0
  6  9  1  0
  6 32  1  0
  6 33  1  0
  7 22  1  0
  7 23  1  0
  8 10  1  0
  8 20  1  0
  8 21  1  0
  9 11  1  0
  9 36  1  0
  9 37  1  0
 10 12  1  0
 10 34  1  0
 10 35  1  0
 11 13  1  0
 11 28  1  0
 11 29  1  0
 12 13  1  0
 12 24  1  0
 12 25  1  0
 13 26  1  0
 13 27  1  0
M  CHG  1   1   1
M  RAD  1   1   2
M  END
$$$$

     RDKit          3D

 37 37  0  0  0  0  0  0  0  0999 V2000
    0.1944   -0.6356   -4.1650 S   0  0  0  0  0  2  0  0  0  0  0  0
    1.6066   -1.4780   -5.5032 Si  0  0  0  0  0  4  0  0  0  0  0  0
   -1.1600    0.7016   -5.0922 Si  0  0  0  0  0  4  0  0  0  0  0  0
   -1.0762    0.5228   -7.2962 Si  0  0  0  0  0  4  0  0  0  0  0  0
   -2.9251    1.3607   -8.2563 Si  0  0  0  0  0  4  0  0  0  0  0  0
    0.0491   -4.5101   -6.9126 Si  0  0  0  0  0  4  0  0  0  0  0  0
    1.5769   -3.7110   -5.4580 Si  0  0  0  0  0  4  0  0  0  0  0  0
   -4.4091   -0.2771   -8.5700 Si  0  0  0  0  0  4  0  0  0  0  0  0
    0.6462   -4.2124   -8.9891 Si  0  0  0  0  0  4  0  0  0  0  0  0
   -4.3224   -1.0676  -10.6540 Si  0  0  0  0  0  4  0  0  0  0  0  0
   -0.9645   -3.6415  -10.3690 Si  0  0  0  0  0  4  0  0  0  0  0  0
   -4.6219   -3.2693  -10.7140 Si  0  0  0  0  0  4  0  0  0  0  0  0
   -2.9546   -4.4069   -9.8212 Si  0  0  0  0  0  4  0  0  0  0  0  0
    3.1621   -0.9984   -4.9862 F   0  0  0  0  0  0  0  0  0  0  0  0
    1.4343   -0.9428   -7.0786 F   0  0  0  0  0  0  0  0  0  0  0  0
   -2.7364    0.2781   -4.5983 F   0  0  0  0  0  0  0  0  0  0  0  0
   -0.8885    2.3080   -4.6664 F   0  0  0  0  0  0  0  0  0  0  0  0
   -3.5153    2.5601   -7.2580 F   0  0  0  0  0  0  0  0  0  0  0  0
   -2.5209    2.0031   -9.7578 F   0  0  0  0  0  0  0  0  0  0  0  0
   -5.9348    0.3332   -8.2038 F   0  0  0  0  0  0  0  0  0  0  0  0
   -4.0751   -1.5587   -7.5121 F   0  0  0  0  0  0  0  0  0  0  0  0
    3.0805   -4.3710   -5.7401 F   0  0  0  0  0  0  0  0  0  0  0  0
    1.0709   -4.1900   -3.9213 F   0  0  0  0  0  0  0  0  0  0  0  0
   -6.0418   -3.6170   -9.8599 F   0  0  0  0  0  0  0  0  0  0  0  0
   -4.8983   -3.7278  -12.3194 F   0  0  0  0  0  0  0  0  0  0  0  0
   -3.1998   -4.5006   -8.1613 F   0  0  0  0  0  0  0  0  0  0  0  0
   -3.0748   -6.0120  -10.3989 F   0  0  0  0  0  0  0  0  0  0  0  0
   -0.5796   -4.2593  -11.9164 F   0  0  0  0  0  0  0  0  0  0  0  0
   -0.9584   -1.9500  -10.5608 F   0  0  0  0  0  0  0  0  0  0  0  0
   -1.0375   -1.0958   -7.6861 F   0  0  0  0  0  0  0  0  0  0  0  0
    0.2419    1.3543   -7.9500 F   0  0  0  0  0  0  0  0  0  0  0  0
   -0.0656   -6.1813   -6.5953 F   0  0  0  0  0  0  0  0  0  0  0  0
   -1.4014   -3.8211   -6.4860 F   0  0  0  0  0  0  0  0  0  0  0  0
   -5.6271   -0.3801  -11.4967 F   0  0  0  0  0  0  0  0  0  0  0  0
   -2.9261   -0.5903  -11.4449 F   0  0  0  0  0  0  0  0  0  0  0  0
    1.8560   -3.0085   -9.0511 F   0  0  0  0  0  0  0  0  0  0  0  0
    1.3989   -5.6318   -9.5688 F   0  0  0  0  0  0  0  0  0  0  0  0
  1  2  1  0
  1  3  1  0
  2  7  1  0
  2 14  1  0
  2 15  1  0
  3  4  1  0
  3 16  1  0
  3 17  1  0
  4  5  1  0
  4 30  1  0
  4 31  1  0
  5  8  1  0
  5 18  1  0
  5 19  1  0
  6  7  1  0
  6  9  1  0
  6 32  1  0
  6 33  1  0
  7 22  1  0
  7 23  1  0
  8 10  1  0
  8 20  1  0
  8 21  1  0
  9 11  1  0
  9 36  1  0
  9 37  1  0
 10 12  1  0
 10 34  1  0
 10 35  1  0
 11 13  1  0
 11 28  1  0
 11 29  1  0
 12 13  1  0
 12 24  1  0
 12 25  1  0
 13 26  1  0
 13 27  1  0
M  CHG  1   1   1
M  RAD  1   1   2
M  END
$$$$

     RDKit          3D

 37 37  0  0  0  0  0  0  0  0999 V2000
    0.1944   -0.6356   -4.1650 S   0  0  0  0  0  2  0  0  0  0  0  0
    2.1415   -1.1970   -4.8759 Si  0  0  0  0  0  4  0  0  0  0  0  0
   -0.3198    1.3494   -4.6951 Si  0  0  0  0  0  4  0  0  0  0  0  0
   -2.4850    1.5141   -5.2997 Si  0  0  0  0  0  4  0  0  0  0  0  0
   -2.8677    3.6990   -5.6927 Si  0  0  0  0  0  4  0  0  0  0  0  0
    4.8218    0.6535   -6.6036 Si  0  0  0  0  0  4  0  0  0  0  0  0
    3.5592    0.5275   -4.8081 Si  0  0  0  0  0  4  0  0  0  0  0  0
   -1.8867    4.2937   -7.6102 Si  0  0  0  0  0  4  0  0  0  0  0  0
    4.0782    2.1225   -8.0949 Si  0  0  0  0  0  4  0  0  0  0  0  0
   -0.5677    6.0825   -7.3160 Si  0  0  0  0  0  4  0  0  0  0  0  0
    4.6442    4.1990   -7.6060 Si  0  0  0  0  0  4  0  0  0  0  0  0
    1.3965    5.7736   -8.3716 Si  0  0  0  0  0  4  0  0  0  0  0  0
    2.9418    5.3956   -6.8276 Si  0  0  0  0  0  4  0  0  0  0  0  0
    2.6843   -2.4618   -3.8656 F   0  0  0  0  0  0  0  0  0  0  0  0
    2.0289   -1.8479   -6.4274 F   0  0  0  0  0  0  0  0  0  0  0  0
    0.5906    1.9394   -5.9724 F   0  0  0  0  0  0  0  0  0  0  0  0
   -0.1044    2.4263   -3.3908 F   0  0  0  0  0  0  0  0  0  0  0  0
   -4.5008    4.0403   -5.6911 F   0  0  0  0  0  0  0  0  0  0  0  0
   -2.1096    4.5435   -4.4192 F   0  0  0  0  0  0  0  0  0  0  0  0
   -0.9262    3.0456   -8.2040 F   0  0  0  0  0  0  0  0  0  0  0  0
   -3.1082    4.6980   -8.7081 F   0  0  0  0  0  0  0  0  0  0  0  0
    2.6758    1.9176   -4.5049 F   0  0  0  0  0  0  0  0  0  0  0  0
    4.5748    0.2856   -3.4577 F   0  0  0  0  0  0  0  0  0  0  0  0
    1.2600    4.5429   -9.4823 F   0  0  0  0  0  0  0  0  0  0  0  0
    1.7716    7.2050   -9.2214 F   0  0  0  0  0  0  0  0  0  0  0  0
    2.2214    4.7137   -5.4924 F   0  0  0  0  0  0  0  0  0  0  0  0
    3.5670    6.9090   -6.3502 F   0  0  0  0  0  0  0  0  0  0  0  0
    5.8845    4.2373   -6.4602 F   0  0  0  0  0  0  0  0  0  0  0  0
    5.2417    5.0028   -8.9837 F   0  0  0  0  0  0  0  0  0  0  0  0
   -3.4955    0.9231   -4.1144 F   0  0  0  0  0  0  0  0  0  0  0  0
   -2.6772    0.7187   -6.7781 F   0  0  0  0  0  0  0  0  0  0  0  0
    4.9096   -0.8604   -7.3526 F   0  0  0  0  0  0  0  0  0  0  0  0
    6.3919    1.0932   -6.1752 F   0  0  0  0  0  0  0  0  0  0  0  0
   -1.3248    7.4807   -7.8746 F   0  0  0  0  0  0  0  0  0  0  0  0
   -0.3325    6.2591   -5.6546 F   0  0  0  0  0  0  0  0  0  0  0  0
    4.8143    1.7249   -9.5857 F   0  0  0  0  0  0  0  0  0  0  0  0
    2.4099    1.9599   -8.3577 F   0  0  0  0  0  0  0  0  0  0  0  0
  1  2  1  0
  1  3  1  0
  2  7  1  0
  2 14  1  0
  2 15  1  0
  3  4  1  0
  3 16  1  0
  3 17  1  0
  4  5  1  0
  4 30  1  0
  4 31  1  0
  5  8  1  0
  5 18  1  0
  5 19  1  0
  6  7  1  0
  6  9  1  0
  6 32  1  0
  6 33  1  0
  7 22  1  0
  7 23  1  0
  8 10  1  0
  8 20  1  0
  8 21  1  0
  9 11  1  0
  9 36  1  0
  9 37  1  0
 10 12  1  0
 10 34  1  0
 10 35  1  0
 11 13  1  0
 11 28  1  0
 11 29  1  0
 12 13  1  0
 12 24  1  0
 12 25  1  0
 13 26  1  0
 13 27  1  0
M  CHG  1   1   1
M  RAD  1   1   2
M  END
$$$$

     RDKit          3D

 37 37  0  0  0  0  0  0  0  0999 V2000
    0.1944   -0.6356   -4.1650 S   0  0  0  0  0  2  0  0  0  0  0  0
   -0.6277    0.5095   -5.7868 Si  0  0  0  0  0  4  0  0  0  0  0  0
    0.0428   -2.7244   -4.7263 Si  0  0  0  0  0  4  0  0  0  0  0  0
   -1.8185   -3.1061   -5.8743 Si  0  0  0  0  0  4  0  0  0  0  0  0
   -1.5598   -4.7269   -7.3700 Si  0  0  0  0  0  4  0  0  0  0  0  0
    0.4202    3.0156   -8.1723 Si  0  0  0  0  0  4  0  0  0  0  0  0
    0.3586    2.4903   -5.9776 Si  0  0  0  0  0  4  0  0  0  0  0  0
   -0.1204   -4.1804   -8.9680 Si  0  0  0  0  0  4  0  0  0  0  0  0
   -1.4844    2.3145   -9.0611 Si  0  0  0  0  0  4  0  0  0  0  0  0
   -0.7837   -2.4185  -10.1441 Si  0  0  0  0  0  4  0  0  0  0  0  0
   -1.3067    1.6645  -11.1443 Si  0  0  0  0  0  4  0  0  0  0  0  0
    1.0065   -1.1740  -10.5731 Si  0  0  0  0  0  4  0  0  0  0  0  0
    0.5892    0.6753  -11.6494 Si  0  0  0  0  0  4  0  0  0  0  0  0
   -0.3225   -0.3515   -7.2087 F   0  0  0  0  0  0  0  0  0  0  0  0
   -2.3046    0.6608   -5.5722 F   0  0  0  0  0  0  0  0  0  0  0  0
    0.0412   -3.6182   -3.2942 F   0  0  0  0  0  0  0  0  0  0  0  0
    1.4175   -3.1864   -5.5965 F   0  0  0  0  0  0  0  0  0  0  0  0
   -0.9580   -6.0854   -6.5734 F   0  0  0  0  0  0  0  0  0  0  0  0
   -3.0553   -5.1139   -8.0260 F   0  0  0  0  0  0  0  0  0  0  0  0
    1.3880   -3.9054   -8.2266 F   0  0  0  0  0  0  0  0  0  0  0  0
    0.0734   -5.5183   -9.9762 F   0  0  0  0  0  0  0  0  0  0  0  0
   -0.6306    3.6432   -5.2291 F   0  0  0  0  0  0  0  0  0  0  0  0
    1.8868    2.4969   -5.3140 F   0  0  0  0  0  0  0  0  0  0  0  0
    1.8912   -0.8359   -9.1758 F   0  0  0  0  0  0  0  0  0  0  0  0
    2.0339   -2.1344  -11.5469 F   0  0  0  0  0  0  0  0  0  0  0  0
    1.8644    1.7772  -11.3764 F   0  0  0  0  0  0  0  0  0  0  0  0
    0.5939    0.3651  -13.3148 F   0  0  0  0  0  0  0  0  0  0  0  0
   -1.4758    3.0168  -12.1511 F   0  0  0  0  0  0  0  0  0  0  0  0
   -2.5991    0.6290  -11.5192 F   0  0  0  0  0  0  0  0  0  0  0  0
   -2.3999   -1.7112   -6.6260 F   0  0  0  0  0  0  0  0  0  0  0  0
   -3.0053   -3.5972   -4.7776 F   0  0  0  0  0  0  0  0  0  0  0  0
    0.5284    4.7163   -8.2378 F   0  0  0  0  0  0  0  0  0  0  0  0
    1.7682    2.3576   -8.8953 F   0  0  0  0  0  0  0  0  0  0  0  0
   -2.0025   -1.5696   -9.3993 F   0  0  0  0  0  0  0  0  0  0  0  0
   -1.3855   -2.9774  -11.6388 F   0  0  0  0  0  0  0  0  0  0  0  0
   -2.2131    1.1185   -8.0844 F   0  0  0  0  0  0  0  0  0  0  0  0
   -2.5661    3.6380   -9.0157 F   0  0  0  0  0  0  0  0  0  0  0  0
  1  2  1  0
  1  3  1  0
  2  7  1  0
  2 14  1  0
  2 15  1  0
  3  4  1  0
  3 16  1  0
  3 17  1  0
  4  5  1  0
  4 30  1  0
  4 31  1  0
  5  8  1  0
  5 18  1  0
  5 19  1  0
  6  7  1  0
  6  9  1  0
  6 32  1  0
  6 33  1  0
  7 22  1  0
  7 23  1  0
  8 10  1  0
  8 20  1  0
  8 21  1  0
  9 11  1  0
  9 36  1  0
  9 37  1  0
 10 12  1  0
 10 34  1  0
 10 35  1  0
 11 13  1  0
 11 28  1  0
 11 29  1  0
 12 13  1  0
 12 24  1  0
 12 25  1  0
 13 26  1  0
 13 27  1  0
M  CHG  1   1   1
M  RAD  1   1   2
M  END
$$$$

     RDKit          3D

 37 37  0  0  0  0  0  0  0  0999 V2000
    0.1944   -0.6356   -4.1650 S   0  0  0  0  0  2  0  0  0  0  0  0
   -0.7027    0.1065   -5.9368 Si  0  0  0  0  0  4  0  0  0  0  0  0
    1.6508   -2.1319   -4.5141 Si  0  0  0  0  0  4  0  0  0  0  0  0
    2.2197   -2.2096   -6.6512 Si  0  0  0  0  0  4  0  0  0  0  0  0
    4.1963   -3.2367   -6.9352 Si  0  0  0  0  0  4  0  0  0  0  0  0
    1.4245    2.8789   -7.1175 Si  0  0  0  0  0  4  0  0  0  0  0  0
   -0.5146    2.3257   -6.1065 Si  0  0  0  0  0  4  0  0  0  0  0  0
    5.8298   -1.7154   -6.9580 Si  0  0  0  0  0  4  0  0  0  0  0  0
    1.4299    2.3665   -9.2376 Si  0  0  0  0  0  4  0  0  0  0  0  0
    6.4087   -1.1722   -9.0426 Si  0  0  0  0  0  4  0  0  0  0  0  0
    3.3206    1.5657  -10.0172 Si  0  0  0  0  0  4  0  0  0  0  0  0
    6.8821    0.9916   -9.2295 Si  0  0  0  0  0  4  0  0  0  0  0  0
    5.1214    2.2999   -8.9856 Si  0  0  0  0  0  4  0  0  0  0  0  0
   -2.3734   -0.2387   -5.8566 F   0  0  0  0  0  0  0  0  0  0  0  0
   -0.1257   -0.6173   -7.3301 F   0  0  0  0  0  0  0  0  0  0  0  0
    3.0460   -1.7246   -3.6218 F   0  0  0  0  0  0  0  0  0  0  0  0
    1.1448   -3.6633   -4.0302 F   0  0  0  0  0  0  0  0  0  0  0  0
    4.3792   -4.3359   -5.6935 F   0  0  0  0  0  0  0  0  0  0  0  0
    4.1934   -4.0323   -8.4177 F   0  0  0  0  0  0  0  0  0  0  0  0
    7.1333   -2.3465   -6.0996 F   0  0  0  0  0  0  0  0  0  0  0  0
    5.3053   -0.3048   -6.1782 F   0  0  0  0  0  0  0  0  0  0  0  0
   -1.8175    3.0149   -6.8835 F   0  0  0  0  0  0  0  0  0  0  0  0
   -0.4375    2.9586   -4.5443 F   0  0  0  0  0  0  0  0  0  0  0  0
    8.0182    1.3730   -8.0335 F   0  0  0  0  0  0  0  0  0  0  0  0
    7.6440    1.2455  -10.7192 F   0  0  0  0  0  0  0  0  0  0  0  0
    4.8845    2.5768   -7.3451 F   0  0  0  0  0  0  0  0  0  0  0  0
    5.5269    3.8190   -9.6583 F   0  0  0  0  0  0  0  0  0  0  0  0
    3.4470    2.0141  -11.6627 F   0  0  0  0  0  0  0  0  0  0  0  0
    3.2392   -0.1346  -10.0337 F   0  0  0  0  0  0  0  0  0  0  0  0
    2.4204   -0.6480   -7.1936 F   0  0  0  0  0  0  0  0  0  0  0  0
    1.0858   -3.0521   -7.5788 F   0  0  0  0  0  0  0  0  0  0  0  0
    1.5718    4.5690   -6.9479 F   0  0  0  0  0  0  0  0  0  0  0  0
    2.6328    2.1803   -6.2160 F   0  0  0  0  0  0  0  0  0  0  0  0
    7.8436   -2.0118   -9.3904 F   0  0  0  0  0  0  0  0  0  0  0  0
    5.2669   -1.6758  -10.1586 F   0  0  0  0  0  0  0  0  0  0  0  0
    0.1999    1.2193   -9.5339 F   0  0  0  0  0  0  0  0  0  0  0  0
    0.9883    3.7404  -10.1512 F   0  0  0  0  0  0  0  0  0  0  0  0
  1  2  1  0
  1  3  1  0
  2  7  1  0
  2 14  1  0
  2 15  1  0
  3  4  1  0
  3 16  1  0
  3 17  1  0
  4  5  1  0
  4 30  1  0
  4 31  1  0
  5  8  1  0
  5 18  1  0
  5 19  1  0
  6  7  1  0
  6  9  1  0
  6 32  1  0
  6 33  1  0
  7 22  1  0
  7 23  1  0
  8 10  1  0
  8 20  1  0
  8 21  1  0
  9 11  1  0
  9 36  1  0
  9 37  1  0
 10 12  1  0
 10 34  1  0
 10 35  1  0
 11 13  1  0
 11 28  1  0
 11 29  1  0
 12 13  1  0
 12 24  1  0
 12 25  1  0
 13 26  1  0
 13 27  1  0
M  CHG  1   1   1
M  RAD  1   1   2
M  END
$$$$

     RDKit          3D

 37 37  0  0  0  0  0  0  0  0999 V2000
    0.1944   -0.6356   -4.1650 S   0  0  0  0  0  2  0  0  0  0  0  0
    1.8098    0.1093   -5.3137 Si  0  0  0  0  0  4  0  0  0  0  0  0
   -1.2506   -1.6899   -5.2864 Si  0  0  0  0  0  4  0  0  0  0  0  0
   -2.9916   -0.4469   -5.8642 Si  0  0  0  0  0  4  0  0  0  0  0  0
   -2.6430    0.6220   -7.7954 Si  0  0  0  0  0  4  0  0  0  0  0  0
    4.0685   -0.4198   -8.0726 Si  0  0  0  0  0  4  0  0  0  0  0  0
    2.8817   -1.4490   -6.4514 Si  0  0  0  0  0  4  0  0  0  0  0  0
   -2.3646   -0.7986   -9.4557 Si  0  0  0  0  0  4  0  0  0  0  0  0
    2.7635    1.2443   -8.8530 Si  0  0  0  0  0  4  0  0  0  0  0  0
   -1.1867    0.0637  -11.1325 Si  0  0  0  0  0  4  0  0  0  0  0  0
    3.2540    1.7436  -10.9473 Si  0  0  0  0  0  4  0  0  0  0  0  0
    0.7732   -0.9502  -11.3889 Si  0  0  0  0  0  4  0  0  0  0  0  0
    2.1913    0.4453  -12.3851 Si  0  0  0  0  0  4  0  0  0  0  0  0
    2.9261    0.8096   -4.2333 F   0  0  0  0  0  0  0  0  0  0  0  0
    1.3157    1.3765   -6.3430 F   0  0  0  0  0  0  0  0  0  0  0  0
   -1.8454   -2.9566   -4.3049 F   0  0  0  0  0  0  0  0  0  0  0  0
   -0.6137   -2.4275   -6.6586 F   0  0  0  0  0  0  0  0  0  0  0  0
   -1.3882    1.6959   -7.6028 F   0  0  0  0  0  0  0  0  0  0  0  0
   -4.0485    1.5369   -8.1092 F   0  0  0  0  0  0  0  0  0  0  0  0
   -3.9100   -1.2056  -10.0573 F   0  0  0  0  0  0  0  0  0  0  0  0
   -1.6411   -2.2397   -8.9848 F   0  0  0  0  0  0  0  0  0  0  0  0
    1.8841   -2.5815   -7.1477 F   0  0  0  0  0  0  0  0  0  0  0  0
    4.0140   -2.2812   -5.4924 F   0  0  0  0  0  0  0  0  0  0  0  0
    0.5277   -2.2612  -12.4548 F   0  0  0  0  0  0  0  0  0  0  0  0
    1.3731   -1.5802   -9.9695 F   0  0  0  0  0  0  0  0  0  0  0  0
    3.3470   -0.3988  -13.2948 F   0  0  0  0  0  0  0  0  0  0  0  0
    1.3079    1.3890  -13.4724 F   0  0  0  0  0  0  0  0  0  0  0  0
    4.9398    1.6664  -11.1359 F   0  0  0  0  0  0  0  0  0  0  0  0
    2.8239    3.3712  -11.2168 F   0  0  0  0  0  0  0  0  0  0  0  0
   -3.4236    0.6244   -4.6541 F   0  0  0  0  0  0  0  0  0  0  0  0
   -4.3108   -1.4930   -6.1022 F   0  0  0  0  0  0  0  0  0  0  0  0
    5.4542    0.2607   -7.4364 F   0  0  0  0  0  0  0  0  0  0  0  0
    4.3697   -1.4602   -9.3402 F   0  0  0  0  0  0  0  0  0  0  0  0
   -0.9093    1.7123  -10.8820 F   0  0  0  0  0  0  0  0  0  0  0  0
   -2.0298   -0.0735  -12.6011 F   0  0  0  0  0  0  0  0  0  0  0  0
    2.9292    2.6228   -7.8965 F   0  0  0  0  0  0  0  0  0  0  0  0
    1.1818    0.6729   -8.7902 F   0  0  0  0  0  0  0  0  0  0  0  0
  1  2  1  0
  1  3  1  0
  2  7  1  0
  2 14  1  0
  2 15  1  0
  3  4  1  0
  3 16  1  0
  3 17  1  0
  4  5  1  0
  4 30  1  0
  4 31  1  0
  5  8  1  0
  5 18  1  0
  5 19  1  0
  6  7  1  0
  6  9  1  0
  6 32  1  0
  6 33  1  0
  7 22  1  0
  7 23  1  0
  8 10  1  0
  8 20  1  0
  8 21  1  0
  9 11  1  0
  9 36  1  0
  9 37  1  0
 10 12  1  0
 10 34  1  0
 10 35  1  0
 11 13  1  0
 11 28  1  0
 11 29  1  0
 12 13  1  0
 12 24  1  0
 12 25  1  0
 13 26  1  0
 13 27  1  0
M  CHG  1   1   1
M  RAD  1   1   2
M  END
$$$$

     RDKit          3D

 37 37  0  0  0  0  0  0  0  0999 V2000
    0.1944   -0.6356   -4.1650 S   0  0  0  0  0  2  0  0  0  0  0  0
   -0.5132   -2.0827   -5.5395 Si  0  0  0  0  0  4  0  0  0  0  0  0
    1.3067    0.9259   -5.0492 Si  0  0  0  0  0  4  0  0  0  0  0  0
    3.4974    0.6073   -4.9518 Si  0  0  0  0  0  4  0  0  0  0  0  0
    4.2425   -0.5701   -6.6989 Si  0  0  0  0  0  4  0  0  0  0  0  0
   -1.8326   -2.7553   -8.8257 Si  0  0  0  0  0  4  0  0  0  0  0  0
   -1.7544   -1.2372   -7.1569 Si  0  0  0  0  0  4  0  0  0  0  0  0
    3.8930    0.5011   -8.5917 Si  0  0  0  0  0  4  0  0  0  0  0  0
    0.2296   -3.6556   -8.9597 Si  0  0  0  0  0  4  0  0  0  0  0  0
    3.7671   -0.8669  -10.3395 Si  0  0  0  0  0  4  0  0  0  0  0  0
    0.6576   -4.3995  -10.9943 Si  0  0  0  0  0  4  0  0  0  0  0  0
    1.7399   -0.8823  -11.2480 Si  0  0  0  0  0  4  0  0  0  0  0  0
    1.4347   -2.8096  -12.3174 Si  0  0  0  0  0  4  0  0  0  0  0  0
   -1.4861   -3.1801   -4.6717 F   0  0  0  0  0  0  0  0  0  0  0  0
    0.7631   -3.0145   -6.1816 F   0  0  0  0  0  0  0  0  0  0  0  0
    0.9714    2.3583   -4.1788 F   0  0  0  0  0  0  0  0  0  0  0  0
    0.8598    1.2365   -6.6418 F   0  0  0  0  0  0  0  0  0  0  0  0
    3.5800   -2.0943   -6.6488 F   0  0  0  0  0  0  0  0  0  0  0  0
    5.9269   -0.7433   -6.4898 F   0  0  0  0  0  0  0  0  0  0  0  0
    5.2132    1.5538   -8.8456 F   0  0  0  0  0  0  0  0  0  0  0  0
    2.5147    1.4612   -8.5687 F   0  0  0  0  0  0  0  0  0  0  0  0
   -1.1843    0.2023   -7.7615 F   0  0  0  0  0  0  0  0  0  0  0  0
   -3.3648   -0.9880   -6.6683 F   0  0  0  0  0  0  0  0  0  0  0  0
    1.7044    0.3548  -12.4242 F   0  0  0  0  0  0  0  0  0  0  0  0
    0.5310   -0.5502  -10.1527 F   0  0  0  0  0  0  0  0  0  0  0  0
    0.3614   -2.6276  -13.6176 F   0  0  0  0  0  0  0  0  0  0  0  0
    2.9200   -3.2770  -12.9718 F   0  0  0  0  0  0  0  0  0  0  0  0
   -0.7530   -5.1161  -11.6107 F   0  0  0  0  0  0  0  0  0  0  0  0
    1.8061   -5.6532  -10.8675 F   0  0  0  0  0  0  0  0  0  0  0  0
    3.9625   -0.0994   -3.5087 F   0  0  0  0  0  0  0  0  0  0  0  0
    4.2404    2.1351   -5.0244 F   0  0  0  0  0  0  0  0  0  0  0  0
   -2.9096   -3.9754   -8.4523 F   0  0  0  0  0  0  0  0  0  0  0  0
   -2.1559   -2.0176  -10.2856 F   0  0  0  0  0  0  0  0  0  0  0  0
    4.1662   -2.4473   -9.8914 F   0  0  0  0  0  0  0  0  0  0  0  0
    4.8670   -0.4087  -11.5505 F   0  0  0  0  0  0  0  0  0  0  0  0
    0.3950   -4.9197   -7.8565 F   0  0  0  0  0  0  0  0  0  0  0  0
    1.3100   -2.4166   -8.5992 F   0  0  0  0  0  0  0  0  0  0  0  0
  1  2  1  0
  1  3  1  0
  2  7  1  0
  2 14  1  0
  2 15  1  0
  3  4  1  0
  3 16  1  0
  3 17  1  0
  4  5  1  0
  4 30  1  0
  4 31  1  0
  5  8  1  0
  5 18  1  0
  5 19  1  0
  6  7  1  0
  6  9  1  0
  6 32  1  0
  6 33  1  0
  7 22  1  0
  7 23  1  0
  8 10  1  0
  8 20  1  0
  8 21  1  0
  9 11  1  0
  9 36  1  0
  9 37  1  0
 10 12  1  0
 10 34  1  0
 10 35  1  0
 11 13  1  0
 11 28  1  0
 11 29  1  0
 12 13  1  0
 12 24  1  0
 12 25  1  0
 13 26  1  0
 13 27  1  0
M  CHG  1   1   1
M  RAD  1   1   2
M  END
$$$$

     RDKit          3D

 37 37  0  0  0  0  0  0  0  0999 V2000
    0.1944   -0.6356   -4.1650 S   0  0  0  0  0  2  0  0  0  0  0  0
    1.9200    0.4931   -4.2002 Si  0  0  0  0  0  4  0  0  0  0  0  0
   -0.0321   -2.2778   -5.3899 Si  0  0  0  0  0  4  0  0  0  0  0  0
   -2.2161   -2.5708   -5.8283 Si  0  0  0  0  0  4  0  0  0  0  0  0
   -2.5602   -3.0015   -7.9776 Si  0  0  0  0  0  4  0  0  0  0  0  0
    2.5136    2.4284   -7.1967 Si  0  0  0  0  0  4  0  0  0  0  0  0
    3.0467    0.5553   -6.0953 Si  0  0  0  0  0  4  0  0  0  0  0  0
   -3.0310   -1.1654   -9.1402 Si  0  0  0  0  0  4  0  0  0  0  0  0
    3.2462    2.4352   -9.2706 Si  0  0  0  0  0  4  0  0  0  0  0  0
   -1.8006    0.5721   -8.4997 Si  0  0  0  0  0  4  0  0  0  0  0  0
    3.0957    0.5011  -10.3047 Si  0  0  0  0  0  4  0  0  0  0  0  0
   -0.5230    1.2858  -10.2178 Si  0  0  0  0  0  4  0  0  0  0  0  0
    1.0494   -0.1698  -10.7143 Si  0  0  0  0  0  4  0  0  0  0  0  0
    1.5399    2.0911   -3.7210 F   0  0  0  0  0  0  0  0  0  0  0  0
    2.9811   -0.0710   -2.9819 F   0  0  0  0  0  0  0  0  0  0  0  0
    0.4856   -3.6939   -4.5868 F   0  0  0  0  0  0  0  0  0  0  0  0
    0.7557   -2.2415   -6.8634 F   0  0  0  0  0  0  0  0  0  0  0  0
   -3.8828   -4.0428   -8.1040 F   0  0  0  0  0  0  0  0  0  0  0  0
   -1.2238   -3.8124   -8.6034 F   0  0  0  0  0  0  0  0  0  0  0  0
   -2.7341   -1.4806  -10.7702 F   0  0  0  0  0  0  0  0  0  0  0  0
   -4.6828   -0.8522   -8.9742 F   0  0  0  0  0  0  0  0  0  0  0  0
    2.8518   -0.8010   -7.0406 F   0  0  0  0  0  0  0  0  0  0  0  0
    4.7223    0.6660   -5.7685 F   0  0  0  0  0  0  0  0  0  0  0  0
    0.0474    2.8292   -9.9272 F   0  0  0  0  0  0  0  0  0  0  0  0
   -1.6060    1.4133  -11.5311 F   0  0  0  0  0  0  0  0  0  0  0  0
    0.7594   -1.5851   -9.8016 F   0  0  0  0  0  0  0  0  0  0  0  0
    0.8992   -0.6615  -12.3443 F   0  0  0  0  0  0  0  0  0  0  0  0
    3.9716   -0.6750   -9.4290 F   0  0  0  0  0  0  0  0  0  0  0  0
    3.9352    0.6556  -11.7784 F   0  0  0  0  0  0  0  0  0  0  0  0
   -3.0830   -1.1639   -5.4030 F   0  0  0  0  0  0  0  0  0  0  0  0
   -2.8575   -3.8209   -4.8953 F   0  0  0  0  0  0  0  0  0  0  0  0
    0.8759    2.6788   -7.0483 F   0  0  0  0  0  0  0  0  0  0  0  0
    3.2825    3.7114   -6.3688 F   0  0  0  0  0  0  0  0  0  0  0  0
   -2.8540    1.8436   -8.1282 F   0  0  0  0  0  0  0  0  0  0  0  0
   -0.8869    0.2545   -7.1523 F   0  0  0  0  0  0  0  0  0  0  0  0
    2.4539    3.6373  -10.1394 F   0  0  0  0  0  0  0  0  0  0  0  0
    4.8963    2.8818   -9.2422 F   0  0  0  0  0  0  0  0  0  0  0  0
  1  2  1  0
  1  3  1  0
  2  7  1  0
  2 14  1  0
  2 15  1  0
  3  4  1  0
  3 16  1  0
  3 17  1  0
  4  5  1  0
  4 30  1  0
  4 31  1  0
  5  8  1  0
  5 18  1  0
  5 19  1  0
  6  7  1  0
  6  9  1  0
  6 32  1  0
  6 33  1  0
  7 22  1  0
  7 23  1  0
  8 10  1  0
  8 20  1  0
  8 21  1  0
  9 11  1  0
  9 36  1  0
  9 37  1  0
 10 12  1  0
 10 34  1  0
 10 35  1  0
 11 13  1  0
 11 28  1  0
 11 29  1  0
 12 13  1  0
 12 24  1  0
 12 25  1  0
 13 26  1  0
 13 27  1  0
M  CHG  1   1   1
M  RAD  1   1   2
M  END
$$$$

     RDKit          3D

 37 37  0  0  0  0  0  0  0  0999 V2000
    0.1944   -0.6356   -4.1650 S   0  0  0  0  0  2  0  0  0  0  0  0
    1.8160   -1.4920   -5.2238 Si  0  0  0  0  0  4  0  0  0  0  0  0
   -1.3314    0.1410   -5.4003 Si  0  0  0  0  0  4  0  0  0  0  0  0
   -1.1572    2.3232   -5.7437 Si  0  0  0  0  0  4  0  0  0  0  0  0
    0.1476    2.7850   -7.4981 Si  0  0  0  0  0  4  0  0  0  0  0  0
    2.9032   -3.4015   -8.0812 Si  0  0  0  0  0  4  0  0  0  0  0  0
    1.2187   -3.1039   -6.6083 Si  0  0  0  0  0  4  0  0  0  0  0  0
   -0.6990    1.9678   -9.3603 Si  0  0  0  0  0  4  0  0  0  0  0  0
    3.6866   -1.3453   -8.5709 Si  0  0  0  0  0  4  0  0  0  0  0  0
    0.8476    1.5953  -10.9132 Si  0  0  0  0  0  4  0  0  0  0  0  0
    4.6099   -1.2870  -10.5759 Si  0  0  0  0  0  4  0  0  0  0  0  0
    1.0790   -0.5675  -11.3644 Si  0  0  0  0  0  4  0  0  0  0  0  0
    3.1215   -0.9300  -12.1695 Si  0  0  0  0  0  4  0  0  0  0  0  0
    2.8743   -2.1736   -4.0752 F   0  0  0  0  0  0  0  0  0  0  0  0
    2.7306   -0.3045   -6.0378 F   0  0  0  0  0  0  0  0  0  0  0  0
   -2.8234   -0.1222   -4.6088 F   0  0  0  0  0  0  0  0  0  0  0  0
   -1.4481   -0.6479   -6.8824 F   0  0  0  0  0  0  0  0  0  0  0  0
    1.6956    2.2721   -7.1734 F   0  0  0  0  0  0  0  0  0  0  0  0
    0.1964    4.4847   -7.6379 F   0  0  0  0  0  0  0  0  0  0  0  0
   -1.7975    3.1181   -9.9815 F   0  0  0  0  0  0  0  0  0  0  0  0
   -1.5715    0.5510   -9.1295 F   0  0  0  0  0  0  0  0  0  0  0  0
   -0.1822   -2.7886   -7.4454 F   0  0  0  0  0  0  0  0  0  0  0  0
    1.0178   -4.5938   -5.8122 F   0  0  0  0  0  0  0  0  0  0  0  0
   -0.0254   -0.9442  -12.6108 F   0  0  0  0  0  0  0  0  0  0  0  0
    0.7088   -1.5476  -10.0707 F   0  0  0  0  0  0  0  0  0  0  0  0
    3.1400   -2.2592  -13.2223 F   0  0  0  0  0  0  0  0  0  0  0  0
    3.5637    0.4215  -13.0811 F   0  0  0  0  0  0  0  0  0  0  0  0
    5.4701   -2.7318  -10.8121 F   0  0  0  0  0  0  0  0  0  0  0  0
    5.7722   -0.0398  -10.5861 F   0  0  0  0  0  0  0  0  0  0  0  0
   -0.6329    3.1311   -4.3759 F   0  0  0  0  0  0  0  0  0  0  0  0
   -2.7113    2.9096   -6.1076 F   0  0  0  0  0  0  0  0  0  0  0  0
    4.1408   -4.2765   -7.3807 F   0  0  0  0  0  0  0  0  0  0  0  0
    2.3413   -4.0770   -9.4982 F   0  0  0  0  0  0  0  0  0  0  0  0
    2.3461    2.2044  -10.4223 F   0  0  0  0  0  0  0  0  0  0  0  0
    0.4516    2.3816  -12.3663 F   0  0  0  0  0  0  0  0  0  0  0  0
    4.8175   -0.8548   -7.4207 F   0  0  0  0  0  0  0  0  0  0  0  0
    2.3542   -0.3174   -8.5597 F   0  0  0  0  0  0  0  0  0  0  0  0
  1  2  1  0
  1  3  1  0
  2  7  1  0
  2 14  1  0
  2 15  1  0
  3  4  1  0
  3 16  1  0
  3 17  1  0
  4  5  1  0
  4 30  1  0
  4 31  1  0
  5  8  1  0
  5 18  1  0
  5 19  1  0
  6  7  1  0
  6  9  1  0
  6 32  1  0
  6 33  1  0
  7 22  1  0
  7 23  1  0
  8 10  1  0
  8 20  1  0
  8 21  1  0
  9 11  1  0
  9 36  1  0
  9 37  1  0
 10 12  1  0
 10 34  1  0
 10 35  1  0
 11 13  1  0
 11 28  1  0
 11 29  1  0
 12 13  1  0
 12 24  1  0
 12 25  1  0
 13 26  1  0
 13 27  1  0
M  CHG  1   1   1
M  RAD  1   1   2
M  END
$$$$

     RDKit          3D

 37 37  0  0  0  0  0  0  0  0999 V2000
    0.1944   -0.6356   -4.1650 S   0  0  0  0  0  2  0  0  0  0  0  0
   -1.6913   -1.5505   -4.7331 Si  0  0  0  0  0  4  0  0  0  0  0  0
    0.3536    1.3374   -4.9577 Si  0  0  0  0  0  4  0  0  0  0  0  0
    1.9535    1.5083   -6.4939 Si  0  0  0  0  0  4  0  0  0  0  0  0
    1.3711    3.1166   -7.9375 Si  0  0  0  0  0  4  0  0  0  0  0  0
   -3.3178   -2.4064   -7.9437 Si  0  0  0  0  0  4  0  0  0  0  0  0
   -2.0969   -0.9238   -6.8242 Si  0  0  0  0  0  4  0  0  0  0  0  0
    2.5430    2.9944   -9.8212 Si  0  0  0  0  0  4  0  0  0  0  0  0
   -3.2599   -1.7927  -10.1206 Si  0  0  0  0  0  4  0  0  0  0  0  0
    2.0979    1.1692  -10.9857 Si  0  0  0  0  0  4  0  0  0  0  0  0
   -1.3247   -0.7823  -10.4610 Si  0  0  0  0  0  4  0  0  0  0  0  0
    0.5518    1.4795  -12.5347 Si  0  0  0  0  0  4  0  0  0  0  0  0
   -0.9489   -0.2081  -12.5451 Si  0  0  0  0  0  4  0  0  0  0  0  0
   -2.8684   -0.9402   -3.6858 F   0  0  0  0  0  0  0  0  0  0  0  0
   -1.5801   -3.2039   -4.5666 F   0  0  0  0  0  0  0  0  0  0  0  0
    0.7225    2.4345   -3.7077 F   0  0  0  0  0  0  0  0  0  0  0  0
   -1.0875    1.8697   -5.6489 F   0  0  0  0  0  0  0  0  0  0  0  0
   -0.2763    3.1233   -8.1935 F   0  0  0  0  0  0  0  0  0  0  0  0
    1.7687    4.6044   -7.2007 F   0  0  0  0  0  0  0  0  0  0  0  0
    4.1844    2.9884   -9.4058 F   0  0  0  0  0  0  0  0  0  0  0  0
    2.2670    4.4035  -10.7045 F   0  0  0  0  0  0  0  0  0  0  0  0
   -0.5808   -0.8597   -7.6110 F   0  0  0  0  0  0  0  0  0  0  0  0
   -2.8799    0.5641   -6.9069 F   0  0  0  0  0  0  0  0  0  0  0  0
   -0.2542    2.9647  -12.3376 F   0  0  0  0  0  0  0  0  0  0  0  0
    1.2462    1.5012  -14.0718 F   0  0  0  0  0  0  0  0  0  0  0  0
   -2.3303    0.3742  -13.2996 F   0  0  0  0  0  0  0  0  0  0  0  0
   -0.2583   -1.4502  -13.4585 F   0  0  0  0  0  0  0  0  0  0  0  0
   -1.3167    0.6471   -9.5276 F   0  0  0  0  0  0  0  0  0  0  0  0
   -0.1137   -1.8465   -9.9149 F   0  0  0  0  0  0  0  0  0  0  0  0
    2.2543    0.0575   -7.2738 F   0  0  0  0  0  0  0  0  0  0  0  0
    3.3880    1.9635   -5.6966 F   0  0  0  0  0  0  0  0  0  0  0  0
   -4.9136   -2.4478   -7.4016 F   0  0  0  0  0  0  0  0  0  0  0  0
   -2.5798   -3.9185   -7.8060 F   0  0  0  0  0  0  0  0  0  0  0  0
    3.5403    0.6828  -11.7597 F   0  0  0  0  0  0  0  0  0  0  0  0
    1.7046   -0.0610   -9.9063 F   0  0  0  0  0  0  0  0  0  0  0  0
   -3.3059   -3.2178  -11.0213 F   0  0  0  0  0  0  0  0  0  0  0  0
   -4.5814   -0.8091  -10.4477 F   0  0  0  0  0  0  0  0  0  0  0  0
  1  2  1  0
  1  3  1  0
  2  7  1  0
  2 14  1  0
  2 15  1  0
  3  4  1  0
  3 16  1  0
  3 17  1  0
  4  5  1  0
  4 30  1  0
  4 31  1  0
  5  8  1  0
  5 18  1  0
  5 19  1  0
  6  7  1  0
  6  9  1  0
  6 32  1  0
  6 33  1  0
  7 22  1  0
  7 23  1  0
  8 10  1  0
  8 20  1  0
  8 21  1  0
  9 11  1  0
  9 36  1  0
  9 37  1  0
 10 12  1  0
 10 34  1  0
 10 35  1  0
 11 13  1  0
 11 28  1  0
 11 29  1  0
 12 13  1  0
 12 24  1  0
 12 25  1  0
 13 26  1  0
 13 27  1  0
M  CHG  1   1   1
M  RAD  1   1   2
M  END
$$$$
