
     RDKit          3D

 37 37  0  0  0  0  0  0  0  0999 V2000
   -0.0124   -0.0628   -6.1886 S   0  0  0  0  0  2  0  0  0  0  0  0
    2.0816    0.4309   -6.4514 Si  0  0  0  0  0  4  0  0  0  0  0  0
   -0.8659   -0.6562   -8.0334 Si  0  0  0  0  0  4  0  0  0  0  0  0
   -3.0484   -0.3249   -8.1453 Si  0  0  0  0  0  4  0  0  0  0  0  0
   -3.5392    1.3009   -9.6052 Si  0  0  0  0  0  4  0  0  0  0  0  0
    2.5025    1.8048   -9.7882 Si  0  0  0  0  0  4  0  0  0  0  0  0
    2.7141   -0.0087   -8.5678 Si  0  0  0  0  0  4  0  0  0  0  0  0
   -4.0602    0.4627  -11.6070 Si  0  0  0  0  0  4  0  0  0  0  0  0
    1.9878    1.5361  -11.8771 Si  0  0  0  0  0  4  0  0  0  0  0  0
   -3.0259    1.6073  -13.1769 Si  0  0  0  0  0  4  0  0  0  0  0  0
    1.7332   -0.5300  -12.5852 Si  0  0  0  0  0  4  0  0  0  0  0  0
   -1.4163    0.5201  -14.1948 Si  0  0  0  0  0  4  0  0  0  0  0  0
   -0.4377   -1.0242  -12.9677 Si  0  0  0  0  0  4  0  0  0  0  0  0
    3.0396   -0.3748   -5.3495 F   0  0  0  0  0  0  0  0  0  0  0  0
    2.2154    2.1096   -6.1985 F   0  0  0  0  0  0  0  0  0  0  0  0
   -0.5365   -2.2838   -8.3153 F   0  0  0  0  0  0  0  0  0  0  0  0
   -0.1341    0.2548   -9.2682 F   0  0  0  0  0  0  0  0  0  0  0  0
   -2.1634    2.2577   -9.7671 F   0  0  0  0  0  0  0  0  0  0  0  0
   -4.7687    2.2895   -9.0051 F   0  0  0  0  0  0  0  0  0  0  0  0
   -3.7680   -1.1930  -11.6877 F   0  0  0  0  0  0  0  0  0  0  0  0
   -5.7522    0.6499  -11.7657 F   0  0  0  0  0  0  0  0  0  0  0  0
    1.8588   -1.3221   -9.0778 F   0  0  0  0  0  0  0  0  0  0  0  0
    4.3597   -0.4590   -8.4786 F   0  0  0  0  0  0  0  0  0  0  0  0
   -0.2342    1.6489  -14.6893 F   0  0  0  0  0  0  0  0  0  0  0  0
   -2.0424   -0.1333  -15.6432 F   0  0  0  0  0  0  0  0  0  0  0  0
   -1.2311   -1.3621  -11.5424 F   0  0  0  0  0  0  0  0  0  0  0  0
   -0.4189   -2.4772  -13.8689 F   0  0  0  0  0  0  0  0  0  0  0  0
    2.3682   -1.6827  -11.5501 F   0  0  0  0  0  0  0  0  0  0  0  0
    2.4995   -0.7594  -14.0752 F   0  0  0  0  0  0  0  0  0  0  0  0
   -3.6461    0.1762   -6.6316 F   0  0  0  0  0  0  0  0  0  0  0  0
   -3.8713   -1.7274   -8.6079 F   0  0  0  0  0  0  0  0  0  0  0  0
    1.3747    2.8344   -9.0146 F   0  0  0  0  0  0  0  0  0  0  0  0
    3.9716    2.6642   -9.6526 F   0  0  0  0  0  0  0  0  0  0  0  0
   -4.1736    2.1268  -14.3292 F   0  0  0  0  0  0  0  0  0  0  0  0
   -2.3803    3.0393  -12.5104 F   0  0  0  0  0  0  0  0  0  0  0  0
    3.1457    2.3015  -12.8767 F   0  0  0  0  0  0  0  0  0  0  0  0
    0.5264    2.3572  -12.2251 F   0  0  0  0  0  0  0  0  0  0  0  0
  1  2  1  0
  1  3  1  0
  2  7  1  0
  2 14  1  0
  2 15  1  0
  3  4  1  0
  3 16  1  0
  3 17  1  0
  4  5  1  0
  4 30  1  0
  4 31  1  0
  5  8  1  0
  5 18  1  0
  5 19  1  0
  6  7  1  0
  6  9  1  0
  6 32  1  0
  6 33  1  0
  7 22  1  0
  7 23  1  0
  8 10  1  0
  8 20  1  0
  8 21  1  0
  9 11  1  0
  9 36  1  0
  9 37  1  0
 10 12  1  0
 10 34  1  0
 10 35  1  0
 11 13  1  0
 11 28  1  0
 11 29  1  0
 12 13  1  0
 12 24  1  0
 12 25  1  0
 13 26  1  0
 13 27  1  0
M  CHG  1   1   1
M  RAD  1   1   2
M  END
$$$$

     RDKit          3D

 37 37  0  0  0  0  0  0  0  0999 V2000
   -0.0124   -0.0628   -6.1886 S   0  0  0  0  0  2  0  0  0  0  0  0
   -2.1000   -0.5593   -6.4945 Si  0  0  0  0  0  4  0  0  0  0  0  0
    0.8834    0.5116   -8.0193 Si  0  0  0  0  0  4  0  0  0  0  0  0
    3.0678    0.1794   -8.0774 Si  0  0  0  0  0  4  0  0  0  0  0  0
    3.5919   -1.4613   -9.5087 Si  0  0  0  0  0  4  0  0  0  0  0  0
   -2.4441   -1.9676   -9.8257 Si  0  0  0  0  0  4  0  0  0  0  0  0
   -2.6835   -0.1417   -8.6293 Si  0  0  0  0  0  4  0  0  0  0  0  0
    4.1591   -0.6438  -11.5065 Si  0  0  0  0  0  4  0  0  0  0  0  0
   -1.8813   -1.7205  -11.9049 Si  0  0  0  0  0  4  0  0  0  0  0  0
    3.1611   -1.8046  -13.0880 Si  0  0  0  0  0  4  0  0  0  0  0  0
   -1.6102    0.3383  -12.6283 Si  0  0  0  0  0  4  0  0  0  0  0  0
    1.5755   -0.7282  -14.1538 Si  0  0  0  0  0  4  0  0  0  0  0  0
    0.5690    0.8287  -12.9656 Si  0  0  0  0  0  4  0  0  0  0  0  0
   -3.0829    0.2576   -5.4234 F   0  0  0  0  0  0  0  0  0  0  0  0
   -2.2398   -2.2354   -6.2275 F   0  0  0  0  0  0  0  0  0  0  0  0
    0.5608    2.1361   -8.3255 F   0  0  0  0  0  0  0  0  0  0  0  0
    0.1801   -0.4121   -9.2612 F   0  0  0  0  0  0  0  0  0  0  0  0
    2.2201   -2.4199   -9.6924 F   0  0  0  0  0  0  0  0  0  0  0  0
    4.8071   -2.4436   -8.8703 F   0  0  0  0  0  0  0  0  0  0  0  0
    3.8691    1.0110  -11.6110 F   0  0  0  0  0  0  0  0  0  0  0  0
    5.8542   -0.8325  -11.6242 F   0  0  0  0  0  0  0  0  0  0  0  0
   -1.8164    1.1665   -9.1330 F   0  0  0  0  0  0  0  0  0  0  0  0
   -4.3306    0.3094   -8.5827 F   0  0  0  0  0  0  0  0  0  0  0  0
    0.4049   -1.8620  -14.6638 F   0  0  0  0  0  0  0  0  0  0  0  0
    2.2349   -0.0896  -15.5941 F   0  0  0  0  0  0  0  0  0  0  0  0
    1.3295    1.1813  -11.5260 F   0  0  0  0  0  0  0  0  0  0  0  0
    0.5713    2.2723  -13.8820 F   0  0  0  0  0  0  0  0  0  0  0  0
   -2.2687    1.5015  -11.6199 F   0  0  0  0  0  0  0  0  0  0  0  0
   -2.3418    0.5523  -14.1377 F   0  0  0  0  0  0  0  0  0  0  0  0
    3.6304   -0.3061   -6.5453 F   0  0  0  0  0  0  0  0  0  0  0  0
    3.9014    1.5771   -8.5354 F   0  0  0  0  0  0  0  0  0  0  0  0
   -1.3345   -2.9891   -9.0158 F   0  0  0  0  0  0  0  0  0  0  0  0
   -3.9160   -2.8258   -9.7152 F   0  0  0  0  0  0  0  0  0  0  0  0
    4.3349   -2.3359  -14.2081 F   0  0  0  0  0  0  0  0  0  0  0  0
    2.5000   -3.2297  -12.4218 F   0  0  0  0  0  0  0  0  0  0  0  0
   -3.0160   -2.4963  -12.9230 F   0  0  0  0  0  0  0  0  0  0  0  0
   -0.4124   -2.5450  -12.2107 F   0  0  0  0  0  0  0  0  0  0  0  0
  1  2  1  0
  1  3  1  0
  2  7  1  0
  2 14  1  0
  2 15  1  0
  3  4  1  0
  3 16  1  0
  3 17  1  0
  4  5  1  0
  4 30  1  0
  4 31  1  0
  5  8  1  0
  5 18  1  0
  5 19  1  0
  6  7  1  0
  6  9  1  0
  6 32  1  0
  6 33  1  0
  7 22  1  0
  7 23  1  0
  8 10  1  0
  8 20  1  0
  8 21  1  0
  9 11  1  0
  9 36  1  0
  9 37  1  0
 10 12  1  0
 10 34  1  0
 10 35  1  0
 11 13  1  0
 11 28  1  0
 11 29  1  0
 12 13  1  0
 12 24  1  0
 12 25  1  0
 13 26  1  0
 13 27  1  0
M  CHG  1   1   1
M  RAD  1   1   2
M  END
$$$$
