
     RDKit          3D

 37 37  0  0  0  0  0  0  0  0999 V2000
    2.0675   -0.8224    2.8736 S   0  0  0  0  0  2  0  0  0  0  0  0
    2.6058   -2.7142    3.6782 Si  0  0  0  0  0  4  0  0  0  0  0  0
    2.2418    0.7437    4.3401 Si  0  0  0  0  0  4  0  0  0  0  0  0
    4.3293    1.1179    4.9249 Si  0  0  0  0  0  4  0  0  0  0  0  0
    4.6061    1.0709    7.1526 Si  0  0  0  0  0  4  0  0  0  0  0  0
   -0.8667   -2.5180    4.9075 Si  0  0  0  0  0  4  0  0  0  0  0  0
    0.8498   -3.8387    4.4577 Si  0  0  0  0  0  4  0  0  0  0  0  0
    3.0409    2.1953    8.2092 Si  0  0  0  0  0  4  0  0  0  0  0  0
   -1.0310   -2.0309    7.0656 Si  0  0  0  0  0  4  0  0  0  0  0  0
    2.7005    1.5908   10.2818 Si  0  0  0  0  0  4  0  0  0  0  0  0
    0.8522   -2.5458    8.1713 Si  0  0  0  0  0  4  0  0  0  0  0  0
    2.7312   -0.5746   10.6582 Si  0  0  0  0  0  4  0  0  0  0  0  0
    0.8033   -1.5716   10.1835 Si  0  0  0  0  0  4  0  0  0  0  0  0
    3.3114   -3.6274    2.4218 F   0  0  0  0  0  0  0  0  0  0  0  0
    3.8185   -2.5683    4.8690 F   0  0  0  0  0  0  0  0  0  0  0  0
    1.2471    0.3527    5.6203 F   0  0  0  0  0  0  0  0  0  0  0  0
    1.6226    2.1552    3.6239 F   0  0  0  0  0  0  0  0  0  0  0  0
    6.1066    1.8253    7.4621 F   0  0  0  0  0  0  0  0  0  0  0  0
    4.7433   -0.5167    7.6129 F   0  0  0  0  0  0  0  0  0  0  0  0
    1.5499    2.1743    7.3786 F   0  0  0  0  0  0  0  0  0  0  0  0
    3.5067    3.8416    8.2143 F   0  0  0  0  0  0  0  0  0  0  0  0
    1.2762   -4.7612    5.8247 F   0  0  0  0  0  0  0  0  0  0  0  0
    0.3536   -4.9701    3.2807 F   0  0  0  0  0  0  0  0  0  0  0  0
    3.9967   -1.3671    9.8980 F   0  0  0  0  0  0  0  0  0  0  0  0
    2.9962   -0.7792   12.3364 F   0  0  0  0  0  0  0  0  0  0  0  0
   -0.4971   -0.4837   10.2915 F   0  0  0  0  0  0  0  0  0  0  0  0
    0.5021   -2.7880   11.3204 F   0  0  0  0  0  0  0  0  0  0  0  0
    0.9644   -4.2346    8.3234 F   0  0  0  0  0  0  0  0  0  0  0  0
    2.1424   -1.9758    7.2869 F   0  0  0  0  0  0  0  0  0  0  0  0
    4.9470    2.5564    4.3418 F   0  0  0  0  0  0  0  0  0  0  0  0
    5.2961   -0.1367    4.2954 F   0  0  0  0  0  0  0  0  0  0  0  0
   -0.7590   -1.1247    3.9490 F   0  0  0  0  0  0  0  0  0  0  0  0
   -2.3171   -3.2907    4.4460 F   0  0  0  0  0  0  0  0  0  0  0  0
    3.8533    2.3571   11.2785 F   0  0  0  0  0  0  0  0  0  0  0  0
    1.1886    2.1999   10.7841 F   0  0  0  0  0  0  0  0  0  0  0  0
   -1.2432   -0.3492    7.2297 F   0  0  0  0  0  0  0  0  0  0  0  0
   -2.3640   -2.7568    7.7901 F   0  0  0  0  0  0  0  0  0  0  0  0
  1  2  1  0
  1  3  1  0
  2  7  1  0
  2 14  1  0
  2 15  1  0
  3  4  1  0
  3 16  1  0
  3 17  1  0
  4  5  1  0
  4 30  1  0
  4 31  1  0
  5  8  1  0
  5 18  1  0
  5 19  1  0
  6  7  1  0
  6  9  1  0
  6 32  1  0
  6 33  1  0
  7 22  1  0
  7 23  1  0
  8 10  1  0
  8 20  1  0
  8 21  1  0
  9 11  1  0
  9 36  1  0
  9 37  1  0
 10 12  1  0
 10 34  1  0
 10 35  1  0
 11 13  1  0
 11 28  1  0
 11 29  1  0
 12 13  1  0
 12 24  1  0
 12 25  1  0
 13 26  1  0
 13 27  1  0
M  CHG  1   1   1
M  RAD  1   1   2
M  END
$$$$

     RDKit          3D

 37 37  0  0  0  0  0  0  0  0999 V2000
    2.0675   -0.8224    2.8736 S   0  0  0  0  0  2  0  0  0  0  0  0
    1.2490    0.2823    4.4946 Si  0  0  0  0  0  4  0  0  0  0  0  0
    4.1980   -0.4267    2.8175 Si  0  0  0  0  0  4  0  0  0  0  0  0
    5.0343   -1.1696    4.7696 Si  0  0  0  0  0  4  0  0  0  0  0  0
    6.6371    0.1960    5.4674 Si  0  0  0  0  0  4  0  0  0  0  0  0
    0.3236    0.0621    7.9766 Si  0  0  0  0  0  4  0  0  0  0  0  0
    0.3652   -1.0341    6.0588 Si  0  0  0  0  0  4  0  0  0  0  0  0
    8.1818   -0.8633    6.6673 Si  0  0  0  0  0  4  0  0  0  0  0  0
    2.1761   -0.2494    9.1709 Si  0  0  0  0  0  4  0  0  0  0  0  0
    7.5175   -1.2701    8.7357 Si  0  0  0  0  0  4  0  0  0  0  0  0
    2.5459   -2.3838    9.6158 Si  0  0  0  0  0  4  0  0  0  0  0  0
    6.1110   -2.9708    8.8752 Si  0  0  0  0  0  4  0  0  0  0  0  0
    4.6181   -2.5670   10.4752 Si  0  0  0  0  0  4  0  0  0  0  0  0
    0.0611    1.3238    3.8664 F   0  0  0  0  0  0  0  0  0  0  0  0
    2.4177    1.2580    5.2521 F   0  0  0  0  0  0  0  0  0  0  0  0
    4.9226   -1.1694    1.5145 F   0  0  0  0  0  0  0  0  0  0  0  0
    4.4508    1.2415    2.7015 F   0  0  0  0  0  0  0  0  0  0  0  0
    5.9764    1.4456    6.3811 F   0  0  0  0  0  0  0  0  0  0  0  0
    7.3735    0.8760    4.1079 F   0  0  0  0  0  0  0  0  0  0  0  0
    8.6910   -2.2599    5.8723 F   0  0  0  0  0  0  0  0  0  0  0  0
    9.5427    0.1634    6.7493 F   0  0  0  0  0  0  0  0  0  0  0  0
   -1.2493   -1.3401    5.5990 F   0  0  0  0  0  0  0  0  0  0  0  0
    1.1328   -2.5107    6.1660 F   0  0  0  0  0  0  0  0  0  0  0  0
    5.3251   -3.2939    7.4334 F   0  0  0  0  0  0  0  0  0  0  0  0
    6.9435   -4.3953    9.3136 F   0  0  0  0  0  0  0  0  0  0  0  0
    4.6206   -3.7466   11.6634 F   0  0  0  0  0  0  0  0  0  0  0  0
    4.9711   -1.0872   11.2458 F   0  0  0  0  0  0  0  0  0  0  0  0
    1.4749   -2.8482   10.8595 F   0  0  0  0  0  0  0  0  0  0  0  0
    2.3369   -3.3842    8.3012 F   0  0  0  0  0  0  0  0  0  0  0  0
    3.8125   -1.1820    5.9327 F   0  0  0  0  0  0  0  0  0  0  0  0
    5.5941   -2.7331    4.4985 F   0  0  0  0  0  0  0  0  0  0  0  0
    0.1935    1.7128    7.6497 F   0  0  0  0  0  0  0  0  0  0  0  0
   -0.9965   -0.3862    8.9151 F   0  0  0  0  0  0  0  0  0  0  0  0
    6.8479    0.1371    9.3724 F   0  0  0  0  0  0  0  0  0  0  0  0
    8.8830   -1.6388    9.6768 F   0  0  0  0  0  0  0  0  0  0  0  0
    1.9536    0.5584   10.6577 F   0  0  0  0  0  0  0  0  0  0  0  0
    3.5257    0.4255    8.4493 F   0  0  0  0  0  0  0  0  0  0  0  0
  1  2  1  0
  1  3  1  0
  2  7  1  0
  2 14  1  0
  2 15  1  0
  3  4  1  0
  3 16  1  0
  3 17  1  0
  4  5  1  0
  4 30  1  0
  4 31  1  0
  5  8  1  0
  5 18  1  0
  5 19  1  0
  6  7  1  0
  6  9  1  0
  6 32  1  0
  6 33  1  0
  7 22  1  0
  7 23  1  0
  8 10  1  0
  8 20  1  0
  8 21  1  0
  9 11  1  0
  9 36  1  0
  9 37  1  0
 10 12  1  0
 10 34  1  0
 10 35  1  0
 11 13  1  0
 11 28  1  0
 11 29  1  0
 12 13  1  0
 12 24  1  0
 12 25  1  0
 13 26  1  0
 13 27  1  0
M  CHG  1   1   1
M  RAD  1   1   2
M  END
$$$$

     RDKit          3D

 37 37  0  0  0  0  0  0  0  0999 V2000
    2.0675   -0.8224    2.8736 S   0  0  0  0  0  2  0  0  0  0  0  0
    1.5990   -2.8348    3.3269 Si  0  0  0  0  0  4  0  0  0  0  0  0
    2.7168    0.3084    4.5501 Si  0  0  0  0  0  4  0  0  0  0  0  0
    1.0820    1.3740    5.5740 Si  0  0  0  0  0  4  0  0  0  0  0  0
   -0.0863    0.0706    6.9433 Si  0  0  0  0  0  4  0  0  0  0  0  0
    3.5436   -5.6109    4.6266 Si  0  0  0  0  0  4  0  0  0  0  0  0
    3.2825   -4.2299    2.8625 Si  0  0  0  0  0  4  0  0  0  0  0  0
    1.1603   -0.7613    8.5810 Si  0  0  0  0  0  4  0  0  0  0  0  0
    4.1833   -4.3330    6.3432 Si  0  0  0  0  0  4  0  0  0  0  0  0
    0.4783   -2.8553    9.0665 Si  0  0  0  0  0  4  0  0  0  0  0  0
    4.5949   -5.5168    8.1615 Si  0  0  0  0  0  4  0  0  0  0  0  0
    1.9965   -3.9475   10.2401 Si  0  0  0  0  0  4  0  0  0  0  0  0
    2.6316   -5.8464    9.2140 Si  0  0  0  0  0  4  0  0  0  0  0  0
    1.0724   -3.0360    4.9174 F   0  0  0  0  0  0  0  0  0  0  0  0
    0.2846   -3.2925    2.3361 F   0  0  0  0  0  0  0  0  0  0  0  0
    3.7891    1.4977    3.9479 F   0  0  0  0  0  0  0  0  0  0  0  0
    3.6091   -0.5987    5.6471 F   0  0  0  0  0  0  0  0  0  0  0  0
   -0.9188   -1.1297    6.1011 F   0  0  0  0  0  0  0  0  0  0  0  0
   -1.2774    1.0578    7.6635 F   0  0  0  0  0  0  0  0  0  0  0  0
    0.9445    0.1409   10.0145 F   0  0  0  0  0  0  0  0  0  0  0  0
    2.7936   -0.7339    8.2308 F   0  0  0  0  0  0  0  0  0  0  0  0
    4.7189   -3.4151    2.5962 F   0  0  0  0  0  0  0  0  0  0  0  0
    2.9521   -5.1471    1.4783 F   0  0  0  0  0  0  0  0  0  0  0  0
    3.3363   -2.9921   10.6015 F   0  0  0  0  0  0  0  0  0  0  0  0
    1.3142   -4.4187   11.7269 F   0  0  0  0  0  0  0  0  0  0  0  0
    1.4677   -6.3229    8.0812 F   0  0  0  0  0  0  0  0  0  0  0  0
    2.8614   -7.0607   10.3307 F   0  0  0  0  0  0  0  0  0  0  0  0
    5.3654   -6.9631    7.8454 F   0  0  0  0  0  0  0  0  0  0  0  0
    5.5340   -4.5542    9.2102 F   0  0  0  0  0  0  0  0  0  0  0  0
    1.7409    2.6333    6.4832 F   0  0  0  0  0  0  0  0  0  0  0  0
    0.0173    2.0580    4.4661 F   0  0  0  0  0  0  0  0  0  0  0  0
    2.0011   -6.2129    4.9892 F   0  0  0  0  0  0  0  0  0  0  0  0
    4.6336   -6.8212    4.2917 F   0  0  0  0  0  0  0  0  0  0  0  0
    0.0571   -3.6786    7.6662 F   0  0  0  0  0  0  0  0  0  0  0  0
   -0.9563   -2.6670    9.9730 F   0  0  0  0  0  0  0  0  0  0  0  0
    2.8768   -3.3115    6.6980 F   0  0  0  0  0  0  0  0  0  0  0  0
    5.5149   -3.4356    5.8413 F   0  0  0  0  0  0  0  0  0  0  0  0
  1  2  1  0
  1  3  1  0
  2  7  1  0
  2 14  1  0
  2 15  1  0
  3  4  1  0
  3 16  1  0
  3 17  1  0
  4  5  1  0
  4 30  1  0
  4 31  1  0
  5  8  1  0
  5 18  1  0
  5 19  1  0
  6  7  1  0
  6  9  1  0
  6 32  1  0
  6 33  1  0
  7 22  1  0
  7 23  1  0
  8 10  1  0
  8 20  1  0
  8 21  1  0
  9 11  1  0
  9 36  1  0
  9 37  1  0
 10 12  1  0
 10 34  1  0
 10 35  1  0
 11 13  1  0
 11 28  1  0
 11 29  1  0
 12 13  1  0
 12 24  1  0
 12 25  1  0
 13 26  1  0
 13 27  1  0
M  CHG  1   1   1
M  RAD  1   1   2
M  END
$$$$

     RDKit          3D

 37 37  0  0  0  0  0  0  0  0999 V2000
    2.0675   -0.8224    2.8736 S   0  0  0  0  0  2  0  0  0  0  0  0
    3.7271   -2.0693    3.3284 Si  0  0  0  0  0  4  0  0  0  0  0  0
    0.9361   -0.3303    4.6375 Si  0  0  0  0  0  4  0  0  0  0  0  0
    2.0586    0.9582    6.0228 Si  0  0  0  0  0  4  0  0  0  0  0  0
    2.0895    0.1327    8.1106 Si  0  0  0  0  0  4  0  0  0  0  0  0
    1.0802   -4.6356    3.1997 Si  0  0  0  0  0  4  0  0  0  0  0  0
    3.2532   -4.2328    3.1042 Si  0  0  0  0  0  4  0  0  0  0  0  0
    0.1092   -0.5672    8.7578 Si  0  0  0  0  0  4  0  0  0  0  0  0
    0.4291   -5.3574    5.1939 Si  0  0  0  0  0  4  0  0  0  0  0  0
    0.1273   -2.0727   10.3421 Si  0  0  0  0  0  4  0  0  0  0  0  0
    2.0033   -5.0013    6.7524 Si  0  0  0  0  0  4  0  0  0  0  0  0
    1.6699   -3.6278   10.1588 Si  0  0  0  0  0  4  0  0  0  0  0  0
    1.0950   -5.2707    8.7780 Si  0  0  0  0  0  4  0  0  0  0  0  0
    4.9795   -1.6798    2.2374 F   0  0  0  0  0  0  0  0  0  0  0  0
    4.3564   -1.7368    4.8787 F   0  0  0  0  0  0  0  0  0  0  0  0
    0.4180   -1.7598    5.3229 F   0  0  0  0  0  0  0  0  0  0  0  0
   -0.4424    0.5150    4.1142 F   0  0  0  0  0  0  0  0  0  0  0  0
    2.5577    1.4233    9.1262 F   0  0  0  0  0  0  0  0  0  0  0  0
    3.2837   -1.0161    8.1838 F   0  0  0  0  0  0  0  0  0  0  0  0
   -0.8335   -1.1479    7.4586 F   0  0  0  0  0  0  0  0  0  0  0  0
   -0.7511    0.7929    9.3384 F   0  0  0  0  0  0  0  0  0  0  0  0
    4.0908   -5.1620    4.2603 F   0  0  0  0  0  0  0  0  0  0  0  0
    3.8250   -4.7676    1.5880 F   0  0  0  0  0  0  0  0  0  0  0  0
    3.1793   -3.0267    9.7486 F   0  0  0  0  0  0  0  0  0  0  0  0
    1.8536   -4.3248   11.7109 F   0  0  0  0  0  0  0  0  0  0  0  0
   -0.5935   -5.4178    8.6632 F   0  0  0  0  0  0  0  0  0  0  0  0
    1.6610   -6.7441    9.3875 F   0  0  0  0  0  0  0  0  0  0  0  0
    3.2797   -6.0978    6.5152 F   0  0  0  0  0  0  0  0  0  0  0  0
    2.5626   -3.4433    6.5748 F   0  0  0  0  0  0  0  0  0  0  0  0
    1.5036    2.5329    6.0811 F   0  0  0  0  0  0  0  0  0  0  0  0
    3.6818    1.0157    5.5063 F   0  0  0  0  0  0  0  0  0  0  0  0
    0.2381   -3.2447    2.7224 F   0  0  0  0  0  0  0  0  0  0  0  0
    0.6731   -5.8410    2.0618 F   0  0  0  0  0  0  0  0  0  0  0  0
    0.2869   -1.2890   11.8487 F   0  0  0  0  0  0  0  0  0  0  0  0
   -1.3981   -2.8345   10.3852 F   0  0  0  0  0  0  0  0  0  0  0  0
   -0.9388   -4.4651    5.6761 F   0  0  0  0  0  0  0  0  0  0  0  0
   -0.0338   -6.9742    5.1741 F   0  0  0  0  0  0  0  0  0  0  0  0
  1  2  1  0
  1  3  1  0
  2  7  1  0
  2 14  1  0
  2 15  1  0
  3  4  1  0
  3 16  1  0
  3 17  1  0
  4  5  1  0
  4 30  1  0
  4 31  1  0
  5  8  1  0
  5 18  1  0
  5 19  1  0
  6  7  1  0
  6  9  1  0
  6 32  1  0
  6 33  1  0
  7 22  1  0
  7 23  1  0
  8 10  1  0
  8 20  1  0
  8 21  1  0
  9 11  1  0
  9 36  1  0
  9 37  1  0
 10 12  1  0
 10 34  1  0
 10 35  1  0
 11 13  1  0
 11 28  1  0
 11 29  1  0
 12 13  1  0
 12 24  1  0
 12 25  1  0
 13 26  1  0
 13 27  1  0
M  CHG  1   1   1
M  RAD  1   1   2
M  END
$$$$

     RDKit          3D

 37 37  0  0  0  0  0  0  0  0999 V2000
    2.0675   -0.8224    2.8736 S   0  0  0  0  0  2  0  0  0  0  0  0
    1.0718    0.0853    4.5176 Si  0  0  0  0  0  4  0  0  0  0  0  0
    4.1396   -0.1882    2.9283 Si  0  0  0  0  0  4  0  0  0  0  0  0
    4.9860   -0.9477    4.8695 Si  0  0  0  0  0  4  0  0  0  0  0  0
    6.3970    0.5447    5.7077 Si  0  0  0  0  0  4  0  0  0  0  0  0
    0.0558   -0.4439    7.9405 Si  0  0  0  0  0  4  0  0  0  0  0  0
    0.2896   -1.4124    5.9686 Si  0  0  0  0  0  4  0  0  0  0  0  0
    8.0093   -0.4046    6.9107 Si  0  0  0  0  0  4  0  0  0  0  0  0
    1.8885   -0.6167    9.1919 Si  0  0  0  0  0  4  0  0  0  0  0  0
    7.3235   -1.0056    8.9241 Si  0  0  0  0  0  4  0  0  0  0  0  0
    2.4836   -2.7190    9.5335 Si  0  0  0  0  0  4  0  0  0  0  0  0
    6.1162   -2.8583    8.9109 Si  0  0  0  0  0  4  0  0  0  0  0  0
    4.5316   -2.7200   10.4671 Si  0  0  0  0  0  4  0  0  0  0  0  0
   -0.2043    1.0229    3.8988 F   0  0  0  0  0  0  0  0  0  0  0  0
    2.0941    1.1388    5.3758 F   0  0  0  0  0  0  0  0  0  0  0  0
    4.9895   -0.7663    1.6176 F   0  0  0  0  0  0  0  0  0  0  0  0
    4.2043    1.5018    2.9150 F   0  0  0  0  0  0  0  0  0  0  0  0
    5.5663    1.6560    6.6607 F   0  0  0  0  0  0  0  0  0  0  0  0
    7.0984    1.3826    4.4198 F   0  0  0  0  0  0  0  0  0  0  0  0
    8.7022   -1.6857    6.0618 F   0  0  0  0  0  0  0  0  0  0  0  0
    9.2405    0.7612    7.1058 F   0  0  0  0  0  0  0  0  0  0  0  0
   -1.2624   -1.8693    5.4257 F   0  0  0  0  0  0  0  0  0  0  0  0
    1.2163   -2.7976    6.0260 F   0  0  0  0  0  0  0  0  0  0  0  0
    5.4234   -3.1808    7.4219 F   0  0  0  0  0  0  0  0  0  0  0  0
    7.0898   -4.2042    9.3043 F   0  0  0  0  0  0  0  0  0  0  0  0
    4.6270   -3.9605   11.5874 F   0  0  0  0  0  0  0  0  0  0  0  0
    4.6862   -1.2585   11.3321 F   0  0  0  0  0  0  0  0  0  0  0  0
    1.4295   -3.3735   10.7039 F   0  0  0  0  0  0  0  0  0  0  0  0
    2.4365   -3.6564    8.1582 F   0  0  0  0  0  0  0  0  0  0  0  0
    3.7335   -1.1660    5.9782 F   0  0  0  0  0  0  0  0  0  0  0  0
    5.7297   -2.4198    4.5362 F   0  0  0  0  0  0  0  0  0  0  0  0
   -0.2503    1.1984    7.7001 F   0  0  0  0  0  0  0  0  0  0  0  0
   -1.2367   -1.0921    8.7970 F   0  0  0  0  0  0  0  0  0  0  0  0
    6.4757    0.2774    9.6090 F   0  0  0  0  0  0  0  0  0  0  0  0
    8.6882   -1.2745    9.8995 F   0  0  0  0  0  0  0  0  0  0  0  0
    1.5231    0.0712   10.7105 F   0  0  0  0  0  0  0  0  0  0  0  0
    3.1768    0.2468    8.5655 F   0  0  0  0  0  0  0  0  0  0  0  0
  1  2  1  0
  1  3  1  0
  2  7  1  0
  2 14  1  0
  2 15  1  0
  3  4  1  0
  3 16  1  0
  3 17  1  0
  4  5  1  0
  4 30  1  0
  4 31  1  0
  5  8  1  0
  5 18  1  0
  5 19  1  0
  6  7  1  0
  6  9  1  0
  6 32  1  0
  6 33  1  0
  7 22  1  0
  7 23  1  0
  8 10  1  0
  8 20  1  0
  8 21  1  0
  9 11  1  0
  9 36  1  0
  9 37  1  0
 10 12  1  0
 10 34  1  0
 10 35  1  0
 11 13  1  0
 11 28  1  0
 11 29  1  0
 12 13  1  0
 12 24  1  0
 12 25  1  0
 13 26  1  0
 13 27  1  0
M  CHG  1   1   1
M  RAD  1   1   2
M  END
$$$$
