
     RDKit          3D

 37 37  0  0  0  0  0  0  0  0999 V2000
   -1.8961   -0.1538   -2.5250 S   0  0  0  0  0  2  0  0  0  0  0  0
   -0.8309   -0.2622   -4.3842 Si  0  0  0  0  0  4  0  0  0  0  0  0
   -3.9547   -0.7695   -2.7955 Si  0  0  0  0  0  4  0  0  0  0  0  0
   -5.3209    0.9588   -2.7077 Si  0  0  0  0  0  4  0  0  0  0  0  0
   -5.8940    1.7071   -4.7199 Si  0  0  0  0  0  4  0  0  0  0  0  0
   -0.8696    1.8401   -7.4220 Si  0  0  0  0  0  4  0  0  0  0  0  0
   -0.5693    1.7591   -5.2168 Si  0  0  0  0  0  4  0  0  0  0  0  0
   -6.7477    0.1097   -5.9969 Si  0  0  0  0  0  4  0  0  0  0  0  0
   -0.7090   -0.0814   -8.4235 Si  0  0  0  0  0  4  0  0  0  0  0  0
   -7.0713    0.9428   -8.0467 Si  0  0  0  0  0  4  0  0  0  0  0  0
   -2.6139   -0.9949   -9.0600 Si  0  0  0  0  0  4  0  0  0  0  0  0
   -6.1212   -0.3412   -9.6023 Si  0  0  0  0  0  4  0  0  0  0  0  0
   -4.0196    0.3628  -10.0357 Si  0  0  0  0  0  4  0  0  0  0  0  0
    0.6857   -0.9648   -4.0396 F   0  0  0  0  0  0  0  0  0  0  0  0
   -1.6444   -1.3035   -5.4019 F   0  0  0  0  0  0  0  0  0  0  0  0
   -4.3146   -1.7882   -1.4745 F   0  0  0  0  0  0  0  0  0  0  0  0
   -4.1089   -1.6801   -4.1822 F   0  0  0  0  0  0  0  0  0  0  0  0
   -4.6160    2.4777   -5.4986 F   0  0  0  0  0  0  0  0  0  0  0  0
   -7.1052    2.8878   -4.4957 F   0  0  0  0  0  0  0  0  0  0  0  0
   -8.2413   -0.3505   -5.3126 F   0  0  0  0  0  0  0  0  0  0  0  0
   -5.7909   -1.2524   -6.0552 F   0  0  0  0  0  0  0  0  0  0  0  0
   -1.6281    2.8228   -4.4215 F   0  0  0  0  0  0  0  0  0  0  0  0
    1.0023    2.2909   -4.8093 F   0  0  0  0  0  0  0  0  0  0  0  0
   -7.0019   -0.2222  -11.0483 F   0  0  0  0  0  0  0  0  0  0  0  0
   -6.1069   -1.9275   -9.0386 F   0  0  0  0  0  0  0  0  0  0  0  0
   -3.7537    0.3261  -11.7211 F   0  0  0  0  0  0  0  0  0  0  0  0
   -3.9384    1.9437   -9.5492 F   0  0  0  0  0  0  0  0  0  0  0  0
   -3.4002   -1.7991   -7.7833 F   0  0  0  0  0  0  0  0  0  0  0  0
   -2.2177   -2.2310  -10.1750 F   0  0  0  0  0  0  0  0  0  0  0  0
   -6.7311    0.6185   -1.8293 F   0  0  0  0  0  0  0  0  0  0  0  0
   -4.5434    2.2190   -1.8890 F   0  0  0  0  0  0  0  0  0  0  0  0
   -2.3286    2.6515   -7.7025 F   0  0  0  0  0  0  0  0  0  0  0  0
    0.3257    2.8904   -8.0450 F   0  0  0  0  0  0  0  0  0  0  0  0
   -8.7443    1.0637   -8.3187 F   0  0  0  0  0  0  0  0  0  0  0  0
   -6.4650    2.5287   -8.1579 F   0  0  0  0  0  0  0  0  0  0  0  0
    0.2979    0.0210   -9.7920 F   0  0  0  0  0  0  0  0  0  0  0  0
    0.0681   -1.1970   -7.3892 F   0  0  0  0  0  0  0  0  0  0  0  0
  1  2  1  0
  1  3  1  0
  2  7  1  0
  2 14  1  0
  2 15  1  0
  3  4  1  0
  3 16  1  0
  3 17  1  0
  4  5  1  0
  4 30  1  0
  4 31  1  0
  5  8  1  0
  5 18  1  0
  5 19  1  0
  6  7  1  0
  6  9  1  0
  6 32  1  0
  6 33  1  0
  7 22  1  0
  7 23  1  0
  8 10  1  0
  8 20  1  0
  8 21  1  0
  9 11  1  0
  9 36  1  0
  9 37  1  0
 10 12  1  0
 10 34  1  0
 10 35  1  0
 11 13  1  0
 11 28  1  0
 11 29  1  0
 12 13  1  0
 12 24  1  0
 12 25  1  0
 13 26  1  0
 13 27  1  0
M  CHG  1   1   1
M  RAD  1   1   2
M  END
$$$$

     RDKit          3D

 37 37  0  0  0  0  0  0  0  0999 V2000
   -1.8961   -0.1538   -2.5250 S   0  0  0  0  0  2  0  0  0  0  0  0
   -0.6777   -1.6010   -3.4754 Si  0  0  0  0  0  4  0  0  0  0  0  0
   -3.2227    0.8422   -3.8712 Si  0  0  0  0  0  4  0  0  0  0  0  0
   -2.2268    2.5004   -4.9526 Si  0  0  0  0  0  4  0  0  0  0  0  0
   -3.2437    2.8923   -6.9045 Si  0  0  0  0  0  4  0  0  0  0  0  0
   -0.2320   -3.1753   -6.7802 Si  0  0  0  0  0  4  0  0  0  0  0  0
   -0.4170   -1.2442   -5.6360 Si  0  0  0  0  0  4  0  0  0  0  0  0
   -2.2276    4.5204   -8.0064 Si  0  0  0  0  0  4  0  0  0  0  0  0
   -0.1139   -2.6052   -8.9604 Si  0  0  0  0  0  4  0  0  0  0  0  0
   -1.3587    3.7848   -9.9440 Si  0  0  0  0  0  4  0  0  0  0  0  0
   -2.0097   -1.6609   -9.5915 Si  0  0  0  0  0  4  0  0  0  0  0  0
   -0.5110    1.7131   -9.6736 Si  0  0  0  0  0  4  0  0  0  0  0  0
   -1.6926    0.2076  -10.7502 Si  0  0  0  0  0  4  0  0  0  0  0  0
   -1.2655   -3.1759   -3.1854 F   0  0  0  0  0  0  0  0  0  0  0  0
    0.8642   -1.5515   -2.7449 F   0  0  0  0  0  0  0  0  0  0  0  0
   -3.9821   -0.2430   -4.9252 F   0  0  0  0  0  0  0  0  0  0  0  0
   -4.4712    1.5230   -2.9244 F   0  0  0  0  0  0  0  0  0  0  0  0
   -4.8600    3.3033   -6.5455 F   0  0  0  0  0  0  0  0  0  0  0  0
   -3.2926    1.5290   -7.8729 F   0  0  0  0  0  0  0  0  0  0  0  0
   -1.0282    5.2617   -7.0855 F   0  0  0  0  0  0  0  0  0  0  0  0
   -3.3698    5.7263   -8.3933 F   0  0  0  0  0  0  0  0  0  0  0  0
   -1.7981   -0.4810   -6.2198 F   0  0  0  0  0  0  0  0  0  0  0  0
    0.9744   -0.3456   -5.9821 F   0  0  0  0  0  0  0  0  0  0  0  0
    1.0681    1.7382  -10.3116 F   0  0  0  0  0  0  0  0  0  0  0  0
   -0.3806    1.4404   -8.0359 F   0  0  0  0  0  0  0  0  0  0  0  0
   -0.9266   -0.1982  -12.2004 F   0  0  0  0  0  0  0  0  0  0  0  0
   -3.2023    0.8509  -11.1305 F   0  0  0  0  0  0  0  0  0  0  0  0
   -2.8196   -2.7575  -10.6183 F   0  0  0  0  0  0  0  0  0  0  0  0
   -2.9998   -1.4317   -8.2579 F   0  0  0  0  0  0  0  0  0  0  0  0
   -0.5826    2.2358   -5.1500 F   0  0  0  0  0  0  0  0  0  0  0  0
   -2.3893    3.9211   -4.0218 F   0  0  0  0  0  0  0  0  0  0  0  0
    1.1083   -4.0402   -6.3042 F   0  0  0  0  0  0  0  0  0  0  0  0
   -1.6749   -4.0463   -6.5354 F   0  0  0  0  0  0  0  0  0  0  0  0
   -2.6216    3.6565  -11.0618 F   0  0  0  0  0  0  0  0  0  0  0  0
   -0.1879    4.8490  -10.4925 F   0  0  0  0  0  0  0  0  0  0  0  0
    0.1698   -4.0579   -9.8056 F   0  0  0  0  0  0  0  0  0  0  0  0
    1.1865   -1.5699   -9.1755 F   0  0  0  0  0  0  0  0  0  0  0  0
  1  2  1  0
  1  3  1  0
  2  7  1  0
  2 14  1  0
  2 15  1  0
  3  4  1  0
  3 16  1  0
  3 17  1  0
  4  5  1  0
  4 30  1  0
  4 31  1  0
  5  8  1  0
  5 18  1  0
  5 19  1  0
  6  7  1  0
  6  9  1  0
  6 32  1  0
  6 33  1  0
  7 22  1  0
  7 23  1  0
  8 10  1  0
  8 20  1  0
  8 21  1  0
  9 11  1  0
  9 36  1  0
  9 37  1  0
 10 12  1  0
 10 34  1  0
 10 35  1  0
 11 13  1  0
 11 28  1  0
 11 29  1  0
 12 13  1  0
 12 24  1  0
 12 25  1  0
 13 26  1  0
 13 27  1  0
M  CHG  1   1   1
M  RAD  1   1   2
M  END
$$$$
