
     RDKit          3D

 37 37  0  0  0  0  0  0  0  0999 V2000
    0.1393    0.1944   -3.1584 S   0  0  0  0  0  2  0  0  0  0  0  0
    1.8847    0.9953   -4.1188 Si  0  0  0  0  0  4  0  0  0  0  0  0
   -1.3856    1.7198   -3.2874 Si  0  0  0  0  0  4  0  0  0  0  0  0
   -1.6336    2.1537   -5.4759 Si  0  0  0  0  0  4  0  0  0  0  0  0
   -3.5827    3.0870   -5.9161 Si  0  0  0  0  0  4  0  0  0  0  0  0
    1.1390   -1.7699   -6.4436 Si  0  0  0  0  0  4  0  0  0  0  0  0
    2.1103    0.2507   -6.1900 Si  0  0  0  0  0  4  0  0  0  0  0  0
   -5.1048    1.6552   -6.6091 Si  0  0  0  0  0  4  0  0  0  0  0  0
    0.2415   -1.9093   -8.4492 Si  0  0  0  0  0  4  0  0  0  0  0  0
   -4.2164   -0.1724   -7.5286 Si  0  0  0  0  0  4  0  0  0  0  0  0
   -1.6298   -3.0072   -8.5760 Si  0  0  0  0  0  4  0  0  0  0  0  0
   -3.9291   -1.7336   -5.9833 Si  0  0  0  0  0  4  0  0  0  0  0  0
   -2.6459   -3.4016   -6.6586 Si  0  0  0  0  0  4  0  0  0  0  0  0
    1.8183    2.6996   -4.1390 F   0  0  0  0  0  0  0  0  0  0  0  0
    3.2556    0.5818   -3.2332 F   0  0  0  0  0  0  0  0  0  0  0  0
   -0.8567    3.0948   -2.5104 F   0  0  0  0  0  0  0  0  0  0  0  0
   -2.8272    1.1842   -2.6082 F   0  0  0  0  0  0  0  0  0  0  0  0
   -3.3622    4.3013   -7.0946 F   0  0  0  0  0  0  0  0  0  0  0  0
   -4.1208    3.8942   -4.5205 F   0  0  0  0  0  0  0  0  0  0  0  0
   -6.1382    1.2598   -5.3455 F   0  0  0  0  0  0  0  0  0  0  0  0
   -6.0555    2.4199   -7.7980 F   0  0  0  0  0  0  0  0  0  0  0  0
    1.3926    1.2886   -7.3182 F   0  0  0  0  0  0  0  0  0  0  0  0
    3.7530    0.1625   -6.5587 F   0  0  0  0  0  0  0  0  0  0  0  0
   -3.2457   -1.0814   -4.5730 F   0  0  0  0  0  0  0  0  0  0  0  0
   -5.4804   -2.2837   -5.5269 F   0  0  0  0  0  0  0  0  0  0  0  0
   -3.6638   -4.7562   -6.8977 F   0  0  0  0  0  0  0  0  0  0  0  0
   -1.5685   -3.8896   -5.4480 F   0  0  0  0  0  0  0  0  0  0  0  0
   -1.3790   -4.5096   -9.3485 F   0  0  0  0  0  0  0  0  0  0  0  0
   -2.7206   -2.1615   -9.5811 F   0  0  0  0  0  0  0  0  0  0  0  0
   -0.4042    3.2642   -5.8847 F   0  0  0  0  0  0  0  0  0  0  0  0
   -1.4563    0.7216   -6.3118 F   0  0  0  0  0  0  0  0  0  0  0  0
    2.3847   -2.9143   -6.2543 F   0  0  0  0  0  0  0  0  0  0  0  0
    0.0559   -1.9399   -5.1977 F   0  0  0  0  0  0  0  0  0  0  0  0
   -5.3706   -0.7681   -8.6376 F   0  0  0  0  0  0  0  0  0  0  0  0
   -2.8371    0.1738   -8.3860 F   0  0  0  0  0  0  0  0  0  0  0  0
    1.4010   -2.6275   -9.4795 F   0  0  0  0  0  0  0  0  0  0  0  0
    0.0440   -0.3259   -9.0561 F   0  0  0  0  0  0  0  0  0  0  0  0
  1  2  1  0
  1  3  1  0
  2  7  1  0
  2 14  1  0
  2 15  1  0
  3  4  1  0
  3 16  1  0
  3 17  1  0
  4  5  1  0
  4 30  1  0
  4 31  1  0
  5  8  1  0
  5 18  1  0
  5 19  1  0
  6  7  1  0
  6  9  1  0
  6 32  1  0
  6 33  1  0
  7 22  1  0
  7 23  1  0
  8 10  1  0
  8 20  1  0
  8 21  1  0
  9 11  1  0
  9 36  1  0
  9 37  1  0
 10 12  1  0
 10 34  1  0
 10 35  1  0
 11 13  1  0
 11 28  1  0
 11 29  1  0
 12 13  1  0
 12 24  1  0
 12 25  1  0
 13 26  1  0
 13 27  1  0
M  CHG  1   1   1
M  RAD  1   1   2
M  END
$$$$

     RDKit          3D

 37 37  0  0  0  0  0  0  0  0999 V2000
    0.1393    0.1944   -3.1584 S   0  0  0  0  0  2  0  0  0  0  0  0
    1.0855   -0.5386   -4.9562 Si  0  0  0  0  0  4  0  0  0  0  0  0
   -1.2385    1.7587   -3.6563 Si  0  0  0  0  0  4  0  0  0  0  0  0
   -3.3259    0.9829   -3.7798 Si  0  0  0  0  0  4  0  0  0  0  0  0
   -3.7017    0.1339   -5.8123 Si  0  0  0  0  0  4  0  0  0  0  0  0
    0.4381   -3.1476   -7.5165 Si  0  0  0  0  0  4  0  0  0  0  0  0
    0.2430   -2.5005   -5.4512 Si  0  0  0  0  0  4  0  0  0  0  0  0
   -4.9792    1.4827   -7.0311 Si  0  0  0  0  0  4  0  0  0  0  0  0
    0.8581   -1.5555   -8.9911 Si  0  0  0  0  0  4  0  0  0  0  0  0
   -4.7696    1.0643   -9.2142 Si  0  0  0  0  0  4  0  0  0  0  0  0
   -1.0160   -0.7988   -9.9536 Si  0  0  0  0  0  4  0  0  0  0  0  0
   -3.1438    2.2235  -10.1439 Si  0  0  0  0  0  4  0  0  0  0  0  0
   -1.1333    1.4141   -9.8450 Si  0  0  0  0  0  4  0  0  0  0  0  0
    2.7349   -0.7079   -4.6335 F   0  0  0  0  0  0  0  0  0  0  0  0
    0.8943    0.6200   -6.1216 F   0  0  0  0  0  0  0  0  0  0  0  0
   -1.1150    3.0615   -2.6013 F   0  0  0  0  0  0  0  0  0  0  0  0
   -0.8423    2.3527   -5.2070 F   0  0  0  0  0  0  0  0  0  0  0  0
   -2.2315   -0.0648   -6.5728 F   0  0  0  0  0  0  0  0  0  0  0  0
   -4.4840   -1.3528   -5.6650 F   0  0  0  0  0  0  0  0  0  0  0  0
   -6.5995    1.1482   -6.6144 F   0  0  0  0  0  0  0  0  0  0  0  0
   -4.7003    3.0919   -6.7017 F   0  0  0  0  0  0  0  0  0  0  0  0
    0.9792   -3.6440   -4.4133 F   0  0  0  0  0  0  0  0  0  0  0  0
   -1.4012   -2.5089   -4.9858 F   0  0  0  0  0  0  0  0  0  0  0  0
   -3.4388    2.3618  -11.8197 F   0  0  0  0  0  0  0  0  0  0  0  0
   -3.1993    3.8066   -9.5394 F   0  0  0  0  0  0  0  0  0  0  0  0
   -0.5047    1.9886   -8.3951 F   0  0  0  0  0  0  0  0  0  0  0  0
   -0.1229    2.0275  -11.0801 F   0  0  0  0  0  0  0  0  0  0  0  0
   -1.0926   -1.2425  -11.5809 F   0  0  0  0  0  0  0  0  0  0  0  0
   -2.3070   -1.5495   -9.1785 F   0  0  0  0  0  0  0  0  0  0  0  0
   -4.4350    2.1862   -3.3976 F   0  0  0  0  0  0  0  0  0  0  0  0
   -3.4480   -0.2907   -2.6507 F   0  0  0  0  0  0  0  0  0  0  0  0
   -1.0040   -3.9220   -8.0086 F   0  0  0  0  0  0  0  0  0  0  0  0
    1.6426   -4.3540   -7.6294 F   0  0  0  0  0  0  0  0  0  0  0  0
   -4.6614   -0.5819   -9.5114 F   0  0  0  0  0  0  0  0  0  0  0  0
   -6.2254    1.5804   -9.9382 F   0  0  0  0  0  0  0  0  0  0  0  0
    1.8201   -2.2214  -10.2229 F   0  0  0  0  0  0  0  0  0  0  0  0
    1.7562   -0.2875   -8.3431 F   0  0  0  0  0  0  0  0  0  0  0  0
  1  2  1  0
  1  3  1  0
  2  7  1  0
  2 14  1  0
  2 15  1  0
  3  4  1  0
  3 16  1  0
  3 17  1  0
  4  5  1  0
  4 30  1  0
  4 31  1  0
  5  8  1  0
  5 18  1  0
  5 19  1  0
  6  7  1  0
  6  9  1  0
  6 32  1  0
  6 33  1  0
  7 22  1  0
  7 23  1  0
  8 10  1  0
  8 20  1  0
  8 21  1  0
  9 11  1  0
  9 36  1  0
  9 37  1  0
 10 12  1  0
 10 34  1  0
 10 35  1  0
 11 13  1  0
 11 28  1  0
 11 29  1  0
 12 13  1  0
 12 24  1  0
 12 25  1  0
 13 26  1  0
 13 27  1  0
M  CHG  1   1   1
M  RAD  1   1   2
M  END
$$$$

     RDKit          3D

 37 37  0  0  0  0  0  0  0  0999 V2000
    0.1393    0.1944   -3.1584 S   0  0  0  0  0  2  0  0  0  0  0  0
    1.3130    0.3503   -4.9563 Si  0  0  0  0  0  4  0  0  0  0  0  0
   -1.9540    0.5389   -3.5906 Si  0  0  0  0  0  4  0  0  0  0  0  0
   -2.8763   -1.2383   -4.5373 Si  0  0  0  0  0  4  0  0  0  0  0  0
   -3.4987   -0.8243   -6.6498 Si  0  0  0  0  0  4  0  0  0  0  0  0
    2.6781   -3.0767   -4.9808 Si  0  0  0  0  0  4  0  0  0  0  0  0
    3.1591   -0.9139   -4.8135 Si  0  0  0  0  0  4  0  0  0  0  0  0
   -3.8751   -2.7569   -7.6563 Si  0  0  0  0  0  4  0  0  0  0  0  0
    3.0469   -3.8681   -7.0199 Si  0  0  0  0  0  4  0  0  0  0  0  0
   -3.4673   -2.6764   -9.8402 Si  0  0  0  0  0  4  0  0  0  0  0  0
    1.1810   -4.7735   -7.8943 Si  0  0  0  0  0  4  0  0  0  0  0  0
   -1.5058   -3.7314  -10.1976 Si  0  0  0  0  0  4  0  0  0  0  0  0
   -0.0816   -3.0958   -8.6384 Si  0  0  0  0  0  4  0  0  0  0  0  0
    0.4184    0.0009   -6.3155 F   0  0  0  0  0  0  0  0  0  0  0  0
    1.8336    1.9695   -5.0960 F   0  0  0  0  0  0  0  0  0  0  0  0
   -2.7137    0.7691   -2.0802 F   0  0  0  0  0  0  0  0  0  0  0  0
   -2.1308    1.9149   -4.5241 F   0  0  0  0  0  0  0  0  0  0  0  0
   -4.9550    0.0611   -6.5580 F   0  0  0  0  0  0  0  0  0  0  0  0
   -2.3931    0.1365   -7.4502 F   0  0  0  0  0  0  0  0  0  0  0  0
   -2.9546   -3.9934   -6.9306 F   0  0  0  0  0  0  0  0  0  0  0  0
   -5.4948   -3.1737   -7.4244 F   0  0  0  0  0  0  0  0  0  0  0  0
    3.8279   -0.6137   -3.2715 F   0  0  0  0  0  0  0  0  0  0  0  0
    4.2971   -0.4179   -5.9375 F   0  0  0  0  0  0  0  0  0  0  0  0
   -1.7523   -5.3866  -10.2413 F   0  0  0  0  0  0  0  0  0  0  0  0
   -0.9843   -3.2385  -11.7454 F   0  0  0  0  0  0  0  0  0  0  0  0
    0.9398   -1.9122   -9.2861 F   0  0  0  0  0  0  0  0  0  0  0  0
   -0.9348   -2.4816   -7.3179 F   0  0  0  0  0  0  0  0  0  0  0  0
    1.5318   -5.8908   -9.0746 F   0  0  0  0  0  0  0  0  0  0  0  0
    0.3544   -5.5545   -6.6344 F   0  0  0  0  0  0  0  0  0  0  0  0
   -1.7994   -2.5169   -4.4457 F   0  0  0  0  0  0  0  0  0  0  0  0
   -4.2863   -1.7212   -3.7055 F   0  0  0  0  0  0  0  0  0  0  0  0
    1.0956   -3.3430   -4.4654 F   0  0  0  0  0  0  0  0  0  0  0  0
    3.7196   -3.9093   -3.9154 F   0  0  0  0  0  0  0  0  0  0  0  0
   -3.3848   -1.0823  -10.3564 F   0  0  0  0  0  0  0  0  0  0  0  0
   -4.7090   -3.4422  -10.6827 F   0  0  0  0  0  0  0  0  0  0  0  0
    3.5169   -2.5707   -8.0057 F   0  0  0  0  0  0  0  0  0  0  0  0
    4.2258   -5.0757   -7.0340 F   0  0  0  0  0  0  0  0  0  0  0  0
  1  2  1  0
  1  3  1  0
  2  7  1  0
  2 14  1  0
  2 15  1  0
  3  4  1  0
  3 16  1  0
  3 17  1  0
  4  5  1  0
  4 30  1  0
  4 31  1  0
  5  8  1  0
  5 18  1  0
  5 19  1  0
  6  7  1  0
  6  9  1  0
  6 32  1  0
  6 33  1  0
  7 22  1  0
  7 23  1  0
  8 10  1  0
  8 20  1  0
  8 21  1  0
  9 11  1  0
  9 36  1  0
  9 37  1  0
 10 12  1  0
 10 34  1  0
 10 35  1  0
 11 13  1  0
 11 28  1  0
 11 29  1  0
 12 13  1  0
 12 24  1  0
 12 25  1  0
 13 26  1  0
 13 27  1  0
M  CHG  1   1   1
M  RAD  1   1   2
M  END
$$$$

     RDKit          3D

 37 37  0  0  0  0  0  0  0  0999 V2000
    0.1393    0.1944   -3.1584 S   0  0  0  0  0  2  0  0  0  0  0  0
   -1.0392    1.8559   -3.8636 Si  0  0  0  0  0  4  0  0  0  0  0  0
   -0.0430   -1.4879   -4.4807 Si  0  0  0  0  0  4  0  0  0  0  0  0
    1.3999   -1.3123   -6.1822 Si  0  0  0  0  0  4  0  0  0  0  0  0
    3.4531   -1.8655   -5.5944 Si  0  0  0  0  0  4  0  0  0  0  0  0
   -0.2281    4.8865   -5.8030 Si  0  0  0  0  0  4  0  0  0  0  0  0
    0.2928    3.6465   -4.0436 Si  0  0  0  0  0  4  0  0  0  0  0  0
    4.7830   -0.1306   -5.3062 Si  0  0  0  0  0  4  0  0  0  0  0  0
    0.3165    3.9251   -7.7219 Si  0  0  0  0  0  4  0  0  0  0  0  0
    5.4316    0.8264   -7.1729 Si  0  0  0  0  0  4  0  0  0  0  0  0
    2.5017    3.4821   -7.8437 Si  0  0  0  0  0  4  0  0  0  0  0  0
    4.1642    0.3666   -8.9112 Si  0  0  0  0  0  4  0  0  0  0  0  0
    2.8331    2.0401   -9.4928 Si  0  0  0  0  0  4  0  0  0  0  0  0
   -2.2376    2.2339   -2.7148 F   0  0  0  0  0  0  0  0  0  0  0  0
   -1.8169    1.5073   -5.2961 F   0  0  0  0  0  0  0  0  0  0  0  0
    0.1137   -2.9440   -3.6756 F   0  0  0  0  0  0  0  0  0  0  0  0
   -1.6061   -1.4126   -5.1565 F   0  0  0  0  0  0  0  0  0  0  0  0
    4.1375   -2.9624   -6.7008 F   0  0  0  0  0  0  0  0  0  0  0  0
    3.3647   -2.7053   -4.1106 F   0  0  0  0  0  0  0  0  0  0  0  0
    4.0085    0.9614   -4.2552 F   0  0  0  0  0  0  0  0  0  0  0  0
    6.1702   -0.6659   -4.4671 F   0  0  0  0  0  0  0  0  0  0  0  0
    1.9262    3.1834   -4.0705 F   0  0  0  0  0  0  0  0  0  0  0  0
    0.1158    4.6311   -2.6590 F   0  0  0  0  0  0  0  0  0  0  0  0
    5.1468    0.0140  -10.2639 F   0  0  0  0  0  0  0  0  0  0  0  0
    3.2916   -1.0454   -8.5903 F   0  0  0  0  0  0  0  0  0  0  0  0
    3.4418    2.8852  -10.8324 F   0  0  0  0  0  0  0  0  0  0  0  0
    1.3525    1.3637  -10.0043 F   0  0  0  0  0  0  0  0  0  0  0  0
    3.3737    4.9229   -8.0854 F   0  0  0  0  0  0  0  0  0  0  0  0
    2.9696    2.8199   -6.3685 F   0  0  0  0  0  0  0  0  0  0  0  0
    0.8807   -2.4019   -7.3799 F   0  0  0  0  0  0  0  0  0  0  0  0
    1.3445    0.2635   -6.7211 F   0  0  0  0  0  0  0  0  0  0  0  0
    0.5830    6.3587   -5.6739 F   0  0  0  0  0  0  0  0  0  0  0  0
   -1.8659    5.1945   -5.7940 F   0  0  0  0  0  0  0  0  0  0  0  0
    7.0498    0.4144   -7.5243 F   0  0  0  0  0  0  0  0  0  0  0  0
    5.4355    2.5171   -6.9424 F   0  0  0  0  0  0  0  0  0  0  0  0
   -0.5102    2.4681   -7.9178 F   0  0  0  0  0  0  0  0  0  0  0  0
   -0.1295    4.9409   -8.9780 F   0  0  0  0  0  0  0  0  0  0  0  0
  1  2  1  0
  1  3  1  0
  2  7  1  0
  2 14  1  0
  2 15  1  0
  3  4  1  0
  3 16  1  0
  3 17  1  0
  4  5  1  0
  4 30  1  0
  4 31  1  0
  5  8  1  0
  5 18  1  0
  5 19  1  0
  6  7  1  0
  6  9  1  0
  6 32  1  0
  6 33  1  0
  7 22  1  0
  7 23  1  0
  8 10  1  0
  8 20  1  0
  8 21  1  0
  9 11  1  0
  9 36  1  0
  9 37  1  0
 10 12  1  0
 10 34  1  0
 10 35  1  0
 11 13  1  0
 11 28  1  0
 11 29  1  0
 12 13  1  0
 12 24  1  0
 12 25  1  0
 13 26  1  0
 13 27  1  0
M  CHG  1   1   1
M  RAD  1   1   2
M  END
$$$$

     RDKit          3D

 37 37  0  0  0  0  0  0  0  0999 V2000
    0.1393    0.1944   -3.1584 S   0  0  0  0  0  2  0  0  0  0  0  0
    1.1467   -0.7185   -4.7745 Si  0  0  0  0  0  4  0  0  0  0  0  0
   -0.9763    1.9278   -3.7064 Si  0  0  0  0  0  4  0  0  0  0  0  0
   -3.0387    1.4253   -4.3479 Si  0  0  0  0  0  4  0  0  0  0  0  0
   -3.7090    2.5927   -6.0946 Si  0  0  0  0  0  4  0  0  0  0  0  0
    3.8695    0.1587   -7.1031 Si  0  0  0  0  0  4  0  0  0  0  0  0
    3.2590    0.0190   -4.9685 Si  0  0  0  0  0  4  0  0  0  0  0  0
   -2.1495    2.8258   -7.6426 Si  0  0  0  0  0  4  0  0  0  0  0  0
    3.3115    2.1249   -7.9954 Si  0  0  0  0  0  4  0  0  0  0  0  0
   -2.8021    1.9804   -9.6159 Si  0  0  0  0  0  4  0  0  0  0  0  0
    2.6224    1.8209  -10.1137 Si  0  0  0  0  0  4  0  0  0  0  0  0
   -0.9672    1.1350  -10.6155 Si  0  0  0  0  0  4  0  0  0  0  0  0
    0.6251    2.7036  -10.4562 Si  0  0  0  0  0  4  0  0  0  0  0  0
    0.3310   -0.5948   -6.2329 F   0  0  0  0  0  0  0  0  0  0  0  0
    1.2540   -2.3894   -4.4334 F   0  0  0  0  0  0  0  0  0  0  0  0
   -1.1070    2.8799   -2.2912 F   0  0  0  0  0  0  0  0  0  0  0  0
   -0.1660    2.8832   -4.8271 F   0  0  0  0  0  0  0  0  0  0  0  0
   -4.3061    4.0992   -5.6028 F   0  0  0  0  0  0  0  0  0  0  0  0
   -5.0258    1.7692   -6.8031 F   0  0  0  0  0  0  0  0  0  0  0  0
   -0.7664    2.0397   -7.1575 F   0  0  0  0  0  0  0  0  0  0  0  0
   -1.7878    4.4722   -7.7952 F   0  0  0  0  0  0  0  0  0  0  0  0
    3.4602    1.5056   -4.2211 F   0  0  0  0  0  0  0  0  0  0  0  0
    4.3335   -1.0650   -4.2070 F   0  0  0  0  0  0  0  0  0  0  0  0
   -0.5184   -0.2271   -9.6912 F   0  0  0  0  0  0  0  0  0  0  0  0
   -1.2783    0.7156  -12.1964 F   0  0  0  0  0  0  0  0  0  0  0  0
    0.5699    3.6021  -11.8986 F   0  0  0  0  0  0  0  0  0  0  0  0
    0.2725    3.7663   -9.1950 F   0  0  0  0  0  0  0  0  0  0  0  0
    2.6862    0.1897  -10.5180 F   0  0  0  0  0  0  0  0  0  0  0  0
    3.7232    2.6179  -11.1467 F   0  0  0  0  0  0  0  0  0  0  0  0
   -3.1718   -0.2373   -4.7026 F   0  0  0  0  0  0  0  0  0  0  0  0
   -4.1537    1.7067   -3.0846 F   0  0  0  0  0  0  0  0  0  0  0  0
    5.5716    0.0388   -7.1468 F   0  0  0  0  0  0  0  0  0  0  0  0
    3.2808   -1.1299   -8.0160 F   0  0  0  0  0  0  0  0  0  0  0  0
   -3.9885    0.8258   -9.4387 F   0  0  0  0  0  0  0  0  0  0  0  0
   -3.3695    3.2899  -10.5456 F   0  0  0  0  0  0  0  0  0  0  0  0
    4.6617    3.1672   -7.9677 F   0  0  0  0  0  0  0  0  0  0  0  0
    2.1244    2.8375   -7.0614 F   0  0  0  0  0  0  0  0  0  0  0  0
  1  2  1  0
  1  3  1  0
  2  7  1  0
  2 14  1  0
  2 15  1  0
  3  4  1  0
  3 16  1  0
  3 17  1  0
  4  5  1  0
  4 30  1  0
  4 31  1  0
  5  8  1  0
  5 18  1  0
  5 19  1  0
  6  7  1  0
  6  9  1  0
  6 32  1  0
  6 33  1  0
  7 22  1  0
  7 23  1  0
  8 10  1  0
  8 20  1  0
  8 21  1  0
  9 11  1  0
  9 36  1  0
  9 37  1  0
 10 12  1  0
 10 34  1  0
 10 35  1  0
 11 13  1  0
 11 28  1  0
 11 29  1  0
 12 13  1  0
 12 24  1  0
 12 25  1  0
 13 26  1  0
 13 27  1  0
M  CHG  1   1   1
M  RAD  1   1   2
M  END
$$$$
