
     RDKit          3D

 37 37  0  0  0  0  0  0  0  0999 V2000
   -0.1043    0.0998   -3.1973 S   0  0  0  0  0  2  0  0  0  0  0  0
   -1.8392   -0.7825   -4.1087 Si  0  0  0  0  0  4  0  0  0  0  0  0
    0.0671    2.1702   -3.6556 Si  0  0  0  0  0  4  0  0  0  0  0  0
    1.8893    2.6036   -4.8809 Si  0  0  0  0  0  4  0  0  0  0  0  0
    1.4553    4.2671   -6.2646 Si  0  0  0  0  0  4  0  0  0  0  0  0
   -0.8973   -1.7715   -7.5353 Si  0  0  0  0  0  4  0  0  0  0  0  0
   -1.8831   -0.2331   -6.2527 Si  0  0  0  0  0  4  0  0  0  0  0  0
    3.0710    4.6817   -7.6903 Si  0  0  0  0  0  4  0  0  0  0  0  0
    1.1930   -2.1490   -6.9418 Si  0  0  0  0  0  4  0  0  0  0  0  0
    4.5129    3.0239   -7.9227 Si  0  0  0  0  0  4  0  0  0  0  0  0
    2.6742   -1.3718   -8.3712 Si  0  0  0  0  0  4  0  0  0  0  0  0
    3.9933    1.7588   -9.7161 Si  0  0  0  0  0  4  0  0  0  0  0  0
    2.1444    0.5479   -9.2836 Si  0  0  0  0  0  4  0  0  0  0  0  0
   -1.7981   -2.4369   -3.9499 F   0  0  0  0  0  0  0  0  0  0  0  0
   -3.2572   -0.2069   -3.3751 F   0  0  0  0  0  0  0  0  0  0  0  0
   -1.3293    2.7727   -4.4119 F   0  0  0  0  0  0  0  0  0  0  0  0
    0.1953    3.0192   -2.1801 F   0  0  0  0  0  0  0  0  0  0  0  0
    1.1720    5.6664   -5.3318 F   0  0  0  0  0  0  0  0  0  0  0  0
    0.0021    3.9527   -7.0816 F   0  0  0  0  0  0  0  0  0  0  0  0
    3.8954    6.0930   -7.2530 F   0  0  0  0  0  0  0  0  0  0  0  0
    2.3863    4.9910   -9.2227 F   0  0  0  0  0  0  0  0  0  0  0  0
   -1.1615    1.2526   -6.4523 F   0  0  0  0  0  0  0  0  0  0  0  0
   -3.4942   -0.1048   -6.7374 F   0  0  0  0  0  0  0  0  0  0  0  0
    3.6646    2.7903  -10.9983 F   0  0  0  0  0  0  0  0  0  0  0  0
    5.2915    0.7535  -10.0959 F   0  0  0  0  0  0  0  0  0  0  0  0
    1.3851    0.2488  -10.7822 F   0  0  0  0  0  0  0  0  0  0  0  0
    1.1216    1.4917   -8.3835 F   0  0  0  0  0  0  0  0  0  0  0  0
    4.1824   -1.2809   -7.5826 F   0  0  0  0  0  0  0  0  0  0  0  0
    2.8767   -2.5295   -9.6089 F   0  0  0  0  0  0  0  0  0  0  0  0
    2.4334    1.2501   -5.6958 F   0  0  0  0  0  0  0  0  0  0  0  0
    3.1321    3.0737   -3.8110 F   0  0  0  0  0  0  0  0  0  0  0  0
   -1.0424   -1.2648   -9.1374 F   0  0  0  0  0  0  0  0  0  0  0  0
   -1.8380   -3.1902   -7.3977 F   0  0  0  0  0  0  0  0  0  0  0  0
    6.0400    3.7064   -8.2631 F   0  0  0  0  0  0  0  0  0  0  0  0
    4.6822    2.0880   -6.5578 F   0  0  0  0  0  0  0  0  0  0  0  0
    1.4534   -1.5655   -5.3594 F   0  0  0  0  0  0  0  0  0  0  0  0
    1.4104   -3.8406   -6.8380 F   0  0  0  0  0  0  0  0  0  0  0  0
  1  2  1  0
  1  3  1  0
  2  7  1  0
  2 14  1  0
  2 15  1  0
  3  4  1  0
  3 16  1  0
  3 17  1  0
  4  5  1  0
  4 30  1  0
  4 31  1  0
  5  8  1  0
  5 18  1  0
  5 19  1  0
  6  7  1  0
  6  9  1  0
  6 32  1  0
  6 33  1  0
  7 22  1  0
  7 23  1  0
  8 10  1  0
  8 20  1  0
  8 21  1  0
  9 11  1  0
  9 36  1  0
  9 37  1  0
 10 12  1  0
 10 34  1  0
 10 35  1  0
 11 13  1  0
 11 28  1  0
 11 29  1  0
 12 13  1  0
 12 24  1  0
 12 25  1  0
 13 26  1  0
 13 27  1  0
M  CHG  1   1   1
M  RAD  1   1   2
M  END
$$$$
