
     RDKit          3D

 37 37  0  0  0  0  0  0  0  0999 V2000
    0.0288   -0.0044   -3.1983 S   0  0  0  0  0  2  0  0  0  0  0  0
   -0.2823   -1.7162   -4.4055 Si  0  0  0  0  0  4  0  0  0  0  0  0
    1.6916    1.1959   -3.7822 Si  0  0  0  0  0  4  0  0  0  0  0  0
    1.7887    1.2812   -5.9558 Si  0  0  0  0  0  4  0  0  0  0  0  0
    3.1788    2.7527   -6.8318 Si  0  0  0  0  0  4  0  0  0  0  0  0
   -2.6220   -3.2283   -6.8591 Si  0  0  0  0  0  4  0  0  0  0  0  0
   -2.1559   -1.5274   -5.5613 Si  0  0  0  0  0  4  0  0  0  0  0  0
    2.6472    2.8110   -9.0295 Si  0  0  0  0  0  4  0  0  0  0  0  0
   -1.0305   -3.8783   -8.2156 Si  0  0  0  0  0  4  0  0  0  0  0  0
    2.8611    0.8237   -9.9730 Si  0  0  0  0  0  4  0  0  0  0  0  0
    0.3882   -2.2774   -8.7657 Si  0  0  0  0  0  4  0  0  0  0  0  0
    1.0853    0.2778  -11.2122 Si  0  0  0  0  0  4  0  0  0  0  0  0
    0.5388   -1.8943  -10.9309 Si  0  0  0  0  0  4  0  0  0  0  0  0
    1.0348   -2.1150   -5.3573 F   0  0  0  0  0  0  0  0  0  0  0  0
   -0.4977   -3.0426   -3.3442 F   0  0  0  0  0  0  0  0  0  0  0  0
    3.1480    0.6191   -3.1519 F   0  0  0  0  0  0  0  0  0  0  0  0
    1.4354    2.7611   -3.1560 F   0  0  0  0  0  0  0  0  0  0  0  0
    4.7800    2.2955   -6.7274 F   0  0  0  0  0  0  0  0  0  0  0  0
    2.9188    4.3074   -6.2335 F   0  0  0  0  0  0  0  0  0  0  0  0
    1.0000    3.2498   -9.1276 F   0  0  0  0  0  0  0  0  0  0  0  0
    3.5166    4.0081   -9.8085 F   0  0  0  0  0  0  0  0  0  0  0  0
   -2.1725   -0.1042   -6.5017 F   0  0  0  0  0  0  0  0  0  0  0  0
   -3.4158   -1.3406   -4.4487 F   0  0  0  0  0  0  0  0  0  0  0  0
   -0.2450    1.2559  -10.8456 F   0  0  0  0  0  0  0  0  0  0  0  0
    1.4048    0.4806  -12.8563 F   0  0  0  0  0  0  0  0  0  0  0  0
   -0.9760   -2.0997  -11.6670 F   0  0  0  0  0  0  0  0  0  0  0  0
    1.6280   -2.8830  -11.7156 F   0  0  0  0  0  0  0  0  0  0  0  0
    1.9107   -2.6869   -8.1894 F   0  0  0  0  0  0  0  0  0  0  0  0
   -0.1962   -0.8612   -8.0636 F   0  0  0  0  0  0  0  0  0  0  0  0
    2.2892   -0.2215   -6.5116 F   0  0  0  0  0  0  0  0  0  0  0  0
    0.2373    1.6816   -6.5408 F   0  0  0  0  0  0  0  0  0  0  0  0
   -3.0750   -4.5512   -5.8783 F   0  0  0  0  0  0  0  0  0  0  0  0
   -3.9907   -2.8463   -7.7724 F   0  0  0  0  0  0  0  0  0  0  0  0
    4.1961    0.9039  -11.0366 F   0  0  0  0  0  0  0  0  0  0  0  0
    3.1558   -0.4049   -8.9007 F   0  0  0  0  0  0  0  0  0  0  0  0
   -1.7273   -4.4740   -9.6364 F   0  0  0  0  0  0  0  0  0  0  0  0
   -0.2116   -5.1972   -7.5080 F   0  0  0  0  0  0  0  0  0  0  0  0
  1  2  1  0
  1  3  1  0
  2  7  1  0
  2 14  1  0
  2 15  1  0
  3  4  1  0
  3 16  1  0
  3 17  1  0
  4  5  1  0
  4 30  1  0
  4 31  1  0
  5  8  1  0
  5 18  1  0
  5 19  1  0
  6  7  1  0
  6  9  1  0
  6 32  1  0
  6 33  1  0
  7 22  1  0
  7 23  1  0
  8 10  1  0
  8 20  1  0
  8 21  1  0
  9 11  1  0
  9 36  1  0
  9 37  1  0
 10 12  1  0
 10 34  1  0
 10 35  1  0
 11 13  1  0
 11 28  1  0
 11 29  1  0
 12 13  1  0
 12 24  1  0
 12 25  1  0
 13 26  1  0
 13 27  1  0
M  CHG  1   1   1
M  RAD  1   1   2
M  END
$$$$

     RDKit          3D

 37 37  0  0  0  0  0  0  0  0999 V2000
    0.0288   -0.0044   -3.1983 S   0  0  0  0  0  2  0  0  0  0  0  0
    1.7794    1.0726   -3.7194 Si  0  0  0  0  0  4  0  0  0  0  0  0
   -1.2596   -0.3752   -4.8354 Si  0  0  0  0  0  4  0  0  0  0  0  0
   -1.3328   -2.5282   -5.4036 Si  0  0  0  0  0  4  0  0  0  0  0  0
    0.6896   -3.4007   -5.6451 Si  0  0  0  0  0  4  0  0  0  0  0  0
    3.5906    2.6734   -6.4939 Si  0  0  0  0  0  4  0  0  0  0  0  0
    1.6976    1.6735   -5.8910 Si  0  0  0  0  0  4  0  0  0  0  0  0
    0.9909   -4.1707   -7.7265 Si  0  0  0  0  0  4  0  0  0  0  0  0
    3.2563    3.6731   -8.4591 Si  0  0  0  0  0  4  0  0  0  0  0  0
    2.5831   -3.0688   -8.7931 Si  0  0  0  0  0  4  0  0  0  0  0  0
    2.3313    2.2813   -9.9389 Si  0  0  0  0  0  4  0  0  0  0  0  0
    1.7479   -1.3611   -9.9942 Si  0  0  0  0  0  4  0  0  0  0  0  0
    3.2872    0.2850   -9.9177 Si  0  0  0  0  0  4  0  0  0  0  0  0
    2.0583    2.3976   -2.7395 F   0  0  0  0  0  0  0  0  0  0  0  0
    3.1065    0.0070   -3.5818 F   0  0  0  0  0  0  0  0  0  0  0  0
   -0.8871    0.5228   -6.1990 F   0  0  0  0  0  0  0  0  0  0  0  0
   -2.8412    0.0701   -4.3708 F   0  0  0  0  0  0  0  0  0  0  0  0
    0.8036   -4.7314   -4.5825 F   0  0  0  0  0  0  0  0  0  0  0  0
    1.9104   -2.3323   -5.2033 F   0  0  0  0  0  0  0  0  0  0  0  0
   -0.4878   -4.0926   -8.5515 F   0  0  0  0  0  0  0  0  0  0  0  0
    1.4273   -5.8184   -7.6995 F   0  0  0  0  0  0  0  0  0  0  0  0
    1.5809    0.2283   -6.7686 F   0  0  0  0  0  0  0  0  0  0  0  0
    0.4283    2.7073   -6.1912 F   0  0  0  0  0  0  0  0  0  0  0  0
    0.2928   -0.8210   -9.2857 F   0  0  0  0  0  0  0  0  0  0  0  0
    1.4209   -1.8113  -11.5631 F   0  0  0  0  0  0  0  0  0  0  0  0
    4.2971    0.0525  -11.2583 F   0  0  0  0  0  0  0  0  0  0  0  0
    4.2428    0.1024   -8.5296 F   0  0  0  0  0  0  0  0  0  0  0  0
    0.6708    2.1555   -9.7321 F   0  0  0  0  0  0  0  0  0  0  0  0
    2.5908    2.9608  -11.4827 F   0  0  0  0  0  0  0  0  0  0  0  0
   -2.2809   -3.4232   -4.3122 F   0  0  0  0  0  0  0  0  0  0  0  0
   -2.1320   -2.6263   -6.9031 F   0  0  0  0  0  0  0  0  0  0  0  0
    3.9647    3.8470   -5.3496 F   0  0  0  0  0  0  0  0  0  0  0  0
    4.8771    1.5907   -6.5544 F   0  0  0  0  0  0  0  0  0  0  0  0
    3.7507   -2.4844   -7.6970 F   0  0  0  0  0  0  0  0  0  0  0  0
    3.3542   -4.1009   -9.8875 F   0  0  0  0  0  0  0  0  0  0  0  0
    4.6712    4.3589   -9.0621 F   0  0  0  0  0  0  0  0  0  0  0  0
    2.1630    4.9481   -8.1924 F   0  0  0  0  0  0  0  0  0  0  0  0
  1  2  1  0
  1  3  1  0
  2  7  1  0
  2 14  1  0
  2 15  1  0
  3  4  1  0
  3 16  1  0
  3 17  1  0
  4  5  1  0
  4 30  1  0
  4 31  1  0
  5  8  1  0
  5 18  1  0
  5 19  1  0
  6  7  1  0
  6  9  1  0
  6 32  1  0
  6 33  1  0
  7 22  1  0
  7 23  1  0
  8 10  1  0
  8 20  1  0
  8 21  1  0
  9 11  1  0
  9 36  1  0
  9 37  1  0
 10 12  1  0
 10 34  1  0
 10 35  1  0
 11 13  1  0
 11 28  1  0
 11 29  1  0
 12 13  1  0
 12 24  1  0
 12 25  1  0
 13 26  1  0
 13 27  1  0
M  CHG  1   1   1
M  RAD  1   1   2
M  END
$$$$

     RDKit          3D

 37 37  0  0  0  0  0  0  0  0999 V2000
    0.0288   -0.0044   -3.1983 S   0  0  0  0  0  2  0  0  0  0  0  0
   -0.8691   -1.4925   -4.4081 Si  0  0  0  0  0  4  0  0  0  0  0  0
    2.0096    0.5284   -3.7805 Si  0  0  0  0  0  4  0  0  0  0  0  0
    2.1318    0.5768   -5.9539 Si  0  0  0  0  0  4  0  0  0  0  0  0
    3.9541    1.4602   -6.8278 Si  0  0  0  0  0  4  0  0  0  0  0  0
   -3.5920   -2.0721   -6.8639 Si  0  0  0  0  0  4  0  0  0  0  0  0
   -2.5531   -0.6493   -5.5635 Si  0  0  0  0  0  4  0  0  0  0  0  0
    3.4789    1.7067   -9.0253 Si  0  0  0  0  0  4  0  0  0  0  0  0
   -2.3341   -3.2428   -8.2214 Si  0  0  0  0  0  4  0  0  0  0  0  0
    2.9739   -0.2258   -9.9719 Si  0  0  0  0  0  4  0  0  0  0  0  0
   -0.4393   -2.2489   -8.7691 Si  0  0  0  0  0  4  0  0  0  0  0  0
    1.1206   -0.1040  -11.2118 Si  0  0  0  0  0  4  0  0  0  0  0  0
   -0.1615   -1.9410  -10.9338 Si  0  0  0  0  0  4  0  0  0  0  0  0
    0.2211   -2.3315   -5.3606 F   0  0  0  0  0  0  0  0  0  0  0  0
   -1.5418   -2.6576   -3.3488 F   0  0  0  0  0  0  0  0  0  0  0  0
    3.1662   -0.5288   -3.1511 F   0  0  0  0  0  0  0  0  0  0  0  0
    2.3254    2.0817   -3.1519 F   0  0  0  0  0  0  0  0  0  0  0  0
    5.2887    0.4643   -6.7242 F   0  0  0  0  0  0  0  0  0  0  0  0
    4.2626    3.0052   -6.2270 F   0  0  0  0  0  0  0  0  0  0  0  0
    2.0948    2.7017   -9.1227 F   0  0  0  0  0  0  0  0  0  0  0  0
    4.7170    2.5183   -9.8025 F   0  0  0  0  0  0  0  0  0  0  0  0
   -2.0629    0.6884   -6.5017 F   0  0  0  0  0  0  0  0  0  0  0  0
   -3.6652   -0.0291   -4.4505 F   0  0  0  0  0  0  0  0  0  0  0  0
    0.2240    1.2821  -10.8437 F   0  0  0  0  0  0  0  0  0  0  0  0
    1.4922   -0.0254  -12.8556 F   0  0  0  0  0  0  0  0  0  0  0  0
   -1.6501   -1.5944  -11.6702 F   0  0  0  0  0  0  0  0  0  0  0  0
    0.5063   -3.2509  -11.7201 F   0  0  0  0  0  0  0  0  0  0  0  0
    0.8384   -3.1730   -8.1936 F   0  0  0  0  0  0  0  0  0  0  0  0
   -0.4833   -0.7185   -8.0649 F   0  0  0  0  0  0  0  0  0  0  0  0
    2.0666   -1.0050   -6.5120 F   0  0  0  0  0  0  0  0  0  0  0  0
    0.8239    1.5026   -6.5383 F   0  0  0  0  0  0  0  0  0  0  0  0
   -4.4855   -3.1495   -5.8851 F   0  0  0  0  0  0  0  0  0  0  0  0
   -4.7355   -1.2279   -7.7765 F   0  0  0  0  0  0  0  0  0  0  0  0
    4.2510   -0.6232  -11.0354 F   0  0  0  0  0  0  0  0  0  0  0  0
    2.8128   -1.4805   -8.9015 F   0  0  0  0  0  0  0  0  0  0  0  0
   -3.1963   -3.5503   -9.6431 F   0  0  0  0  0  0  0  0  0  0  0  0
   -2.0371   -4.7675   -7.5159 F   0  0  0  0  0  0  0  0  0  0  0  0
  1  2  1  0
  1  3  1  0
  2  7  1  0
  2 14  1  0
  2 15  1  0
  3  4  1  0
  3 16  1  0
  3 17  1  0
  4  5  1  0
  4 30  1  0
  4 31  1  0
  5  8  1  0
  5 18  1  0
  5 19  1  0
  6  7  1  0
  6  9  1  0
  6 32  1  0
  6 33  1  0
  7 22  1  0
  7 23  1  0
  8 10  1  0
  8 20  1  0
  8 21  1  0
  9 11  1  0
  9 36  1  0
  9 37  1  0
 10 12  1  0
 10 34  1  0
 10 35  1  0
 11 13  1  0
 11 28  1  0
 11 29  1  0
 12 13  1  0
 12 24  1  0
 12 25  1  0
 13 26  1  0
 13 27  1  0
M  CHG  1   1   1
M  RAD  1   1   2
M  END
$$$$

     RDKit          3D

 37 37  0  0  0  0  0  0  0  0999 V2000
    0.0288   -0.0044   -3.1983 S   0  0  0  0  0  2  0  0  0  0  0  0
   -1.6597    0.3941   -4.4126 Si  0  0  0  0  0  4  0  0  0  0  0  0
    1.1495   -1.7217   -3.7827 Si  0  0  0  0  0  4  0  0  0  0  0  0
    1.2408   -1.8152   -5.9561 Si  0  0  0  0  0  4  0  0  0  0  0  0
    2.6471   -3.2723   -6.8303 Si  0  0  0  0  0  4  0  0  0  0  0  0
   -3.0437    2.8135   -6.8647 Si  0  0  0  0  0  4  0  0  0  0  0  0
   -1.3740    2.2604   -5.5604 Si  0  0  0  0  0  4  0  0  0  0  0  0
    2.7424   -2.7364   -9.0256 Si  0  0  0  0  0  4  0  0  0  0  0  0
   -3.7636    1.2603   -8.2302 Si  0  0  0  0  0  4  0  0  0  0  0  0
    0.7517   -2.8498   -9.9796 Si  0  0  0  0  0  4  0  0  0  0  0  0
   -2.2311   -0.2328   -8.7779 Si  0  0  0  0  0  4  0  0  0  0  0  0
    0.2993   -1.0451  -11.2146 Si  0  0  0  0  0  4  0  0  0  0  0  0
   -1.8449   -0.3943  -10.9418 Si  0  0  0  0  0  4  0  0  0  0  0  0
   -2.1175   -0.8986   -5.3713 F   0  0  0  0  0  0  0  0  0  0  0  0
   -2.9794    0.6702   -3.3569 F   0  0  0  0  0  0  0  0  0  0  0  0
    0.4991   -3.1505   -3.1606 F   0  0  0  0  0  0  0  0  0  0  0  0
    2.7221   -1.5444   -3.1479 F   0  0  0  0  0  0  0  0  0  0  0  0
    2.1119   -4.8496   -6.7341 F   0  0  0  0  0  0  0  0  0  0  0  0
    4.2097   -3.0906   -6.2234 F   0  0  0  0  0  0  0  0  0  0  0  0
    3.2614   -1.1122   -9.1154 F   0  0  0  0  0  0  0  0  0  0  0  0
    3.8995   -3.6604   -9.8020 F   0  0  0  0  0  0  0  0  0  0  0  0
    0.0530    2.2108   -6.4938 F   0  0  0  0  0  0  0  0  0  0  0  0
   -1.1316    3.5057   -4.4421 F   0  0  0  0  0  0  0  0  0  0  0  0
    1.3393    0.2345  -10.8383 F   0  0  0  0  0  0  0  0  0  0  0  0
    0.4946   -1.3684  -12.8590 F   0  0  0  0  0  0  0  0  0  0  0  0
   -1.9726    1.1313  -11.6732 F   0  0  0  0  0  0  0  0  0  0  0  0
   -2.8817   -1.4312  -11.7354 F   0  0  0  0  0  0  0  0  0  0  0  0
   -2.7173   -1.7356   -8.2094 F   0  0  0  0  0  0  0  0  0  0  0  0
   -0.7917    0.2793   -8.0668 F   0  0  0  0  0  0  0  0  0  0  0  0
   -0.2817   -2.2398   -6.5211 F   0  0  0  0  0  0  0  0  0  0  0  0
    1.7193   -0.2831   -6.5334 F   0  0  0  0  0  0  0  0  0  0  0  0
   -4.3478    3.3270   -5.8886 F   0  0  0  0  0  0  0  0  0  0  0  0
   -2.5908    4.1651   -7.7709 F   0  0  0  0  0  0  0  0  0  0  0  0
    0.7721   -4.1834  -11.0477 F   0  0  0  0  0  0  0  0  0  0  0  0
   -0.4951   -3.0880   -8.9144 F   0  0  0  0  0  0  0  0  0  0  0  0
   -4.3175    1.9903   -9.6513 F   0  0  0  0  0  0  0  0  0  0  0  0
   -5.1245    0.5043   -7.5321 F   0  0  0  0  0  0  0  0  0  0  0  0
  1  2  1  0
  1  3  1  0
  2  7  1  0
  2 14  1  0
  2 15  1  0
  3  4  1  0
  3 16  1  0
  3 17  1  0
  4  5  1  0
  4 30  1  0
  4 31  1  0
  5  8  1  0
  5 18  1  0
  5 19  1  0
  6  7  1  0
  6  9  1  0
  6 32  1  0
  6 33  1  0
  7 22  1  0
  7 23  1  0
  8 10  1  0
  8 20  1  0
  8 21  1  0
  9 11  1  0
  9 36  1  0
  9 37  1  0
 10 12  1  0
 10 34  1  0
 10 35  1  0
 11 13  1  0
 11 28  1  0
 11 29  1  0
 12 13  1  0
 12 24  1  0
 12 25  1  0
 13 26  1  0
 13 27  1  0
M  CHG  1   1   1
M  RAD  1   1   2
M  END
$$$$

     RDKit          3D

 37 37  0  0  0  0  0  0  0  0999 V2000
    0.0288   -0.0044   -3.1983 S   0  0  0  0  0  2  0  0  0  0  0  0
    1.9379    0.5321   -3.6567 Si  0  0  0  0  0  4  0  0  0  0  0  0
   -1.3565   -0.6136   -4.5731 Si  0  0  0  0  0  4  0  0  0  0  0  0
   -0.5951   -1.5042   -6.4542 Si  0  0  0  0  0  4  0  0  0  0  0  0
   -2.2256   -2.8137   -7.2957 Si  0  0  0  0  0  4  0  0  0  0  0  0
    0.9053    3.0883   -6.1116 Si  0  0  0  0  0  4  0  0  0  0  0  0
    2.3342    1.4836   -5.6082 Si  0  0  0  0  0  4  0  0  0  0  0  0
   -1.5902   -3.5019   -9.3101 Si  0  0  0  0  0  4  0  0  0  0  0  0
    0.5807    3.0980   -8.3182 Si  0  0  0  0  0  4  0  0  0  0  0  0
   -1.2488   -1.8451  -10.7184 Si  0  0  0  0  0  4  0  0  0  0  0  0
   -1.5631    2.8260   -8.8370 Si  0  0  0  0  0  4  0  0  0  0  0  0
   -2.7244   -0.2190  -10.5606 Si  0  0  0  0  0  4  0  0  0  0  0  0
   -1.6832    1.7630  -10.7918 Si  0  0  0  0  0  4  0  0  0  0  0  0
    2.9892   -0.8130   -3.5422 F   0  0  0  0  0  0  0  0  0  0  0  0
    2.5257    1.6197   -2.4711 F   0  0  0  0  0  0  0  0  0  0  0  0
   -2.4485    0.6431   -4.9426 F   0  0  0  0  0  0  0  0  0  0  0  0
   -2.3475   -1.8140   -3.8527 F   0  0  0  0  0  0  0  0  0  0  0  0
   -2.4067   -4.1792   -6.3124 F   0  0  0  0  0  0  0  0  0  0  0  0
   -3.6833   -2.0041   -7.3259 F   0  0  0  0  0  0  0  0  0  0  0  0
   -0.1164   -4.3427   -9.1142 F   0  0  0  0  0  0  0  0  0  0  0  0
   -2.6797   -4.5821   -9.9734 F   0  0  0  0  0  0  0  0  0  0  0  0
    3.8748    2.2136   -5.4902 F   0  0  0  0  0  0  0  0  0  0  0  0
    2.4980    0.3455   -6.8524 F   0  0  0  0  0  0  0  0  0  0  0  0
   -3.5485   -0.1884   -9.1164 F   0  0  0  0  0  0  0  0  0  0  0  0
   -3.8626   -0.3230  -11.8100 F   0  0  0  0  0  0  0  0  0  0  0  0
   -0.1304    1.4809  -11.4322 F   0  0  0  0  0  0  0  0  0  0  0  0
   -2.4891    2.7462  -11.8829 F   0  0  0  0  0  0  0  0  0  0  0  0
   -2.3550    4.3285   -8.9168 F   0  0  0  0  0  0  0  0  0  0  0  0
   -2.3799    1.9101   -7.6851 F   0  0  0  0  0  0  0  0  0  0  0  0
    0.7326   -2.4723   -6.1765 F   0  0  0  0  0  0  0  0  0  0  0  0
   -0.3136   -0.3377   -7.6446 F   0  0  0  0  0  0  0  0  0  0  0  0
   -0.5485    2.9412   -5.2725 F   0  0  0  0  0  0  0  0  0  0  0  0
    1.5369    4.6184   -5.6904 F   0  0  0  0  0  0  0  0  0  0  0  0
   -1.3138   -2.4703  -12.3028 F   0  0  0  0  0  0  0  0  0  0  0  0
    0.3200   -1.1976  -10.5486 F   0  0  0  0  0  0  0  0  0  0  0  0
    1.1242    4.5292   -9.0235 F   0  0  0  0  0  0  0  0  0  0  0  0
    1.4533    1.8353   -9.0623 F   0  0  0  0  0  0  0  0  0  0  0  0
  1  2  1  0
  1  3  1  0
  2  7  1  0
  2 14  1  0
  2 15  1  0
  3  4  1  0
  3 16  1  0
  3 17  1  0
  4  5  1  0
  4 30  1  0
  4 31  1  0
  5  8  1  0
  5 18  1  0
  5 19  1  0
  6  7  1  0
  6  9  1  0
  6 32  1  0
  6 33  1  0
  7 22  1  0
  7 23  1  0
  8 10  1  0
  8 20  1  0
  8 21  1  0
  9 11  1  0
  9 36  1  0
  9 37  1  0
 10 12  1  0
 10 34  1  0
 10 35  1  0
 11 13  1  0
 11 28  1  0
 11 29  1  0
 12 13  1  0
 12 24  1  0
 12 25  1  0
 13 26  1  0
 13 27  1  0
M  CHG  1   1   1
M  RAD  1   1   2
M  END
$$$$
