
     RDKit          3D

 37 37  0  0  0  0  0  0  0  0999 V2000
   -0.0002   -0.0009   -4.2532 S   0  0  0  0  0  2  0  0  0  0  0  0
    0.8421    1.9630   -4.5934 Si  0  0  0  0  0  4  0  0  0  0  0  0
   -1.1166   -0.6036   -5.9875 Si  0  0  0  0  0  4  0  0  0  0  0  0
   -2.5542    0.9984   -6.5454 Si  0  0  0  0  0  4  0  0  0  0  0  0
   -3.7746    0.3770   -8.2935 Si  0  0  0  0  0  4  0  0  0  0  0  0
    2.7236    3.8397   -7.1519 Si  0  0  0  0  0  4  0  0  0  0  0  0
    1.8928    1.8791   -6.5767 Si  0  0  0  0  0  4  0  0  0  0  0  0
   -2.5096   -0.2642  -10.0079 Si  0  0  0  0  0  4  0  0  0  0  0  0
    1.4597    4.9371   -8.5935 Si  0  0  0  0  0  4  0  0  0  0  0  0
   -1.2373    1.4299  -10.7368 Si  0  0  0  0  0  4  0  0  0  0  0  0
    1.6027    4.1793  -10.6496 Si  0  0  0  0  0  4  0  0  0  0  0  0
    0.7801    0.6310  -11.2314 Si  0  0  0  0  0  4  0  0  0  0  0  0
    2.3853    2.1233  -10.7961 Si  0  0  0  0  0  4  0  0  0  0  0  0
   -0.4581    3.0294   -4.7281 F   0  0  0  0  0  0  0  0  0  0  0  0
    1.8900    2.3684   -3.3658 F   0  0  0  0  0  0  0  0  0  0  0  0
   -0.1228   -1.0479   -7.2506 F   0  0  0  0  0  0  0  0  0  0  0  0
   -2.0408   -1.9773   -5.5701 F   0  0  0  0  0  0  0  0  0  0  0  0
   -4.7187   -0.9416   -7.8277 F   0  0  0  0  0  0  0  0  0  0  0  0
   -4.7422    1.6877   -8.7444 F   0  0  0  0  0  0  0  0  0  0  0  0
   -1.5852   -1.5677   -9.5360 F   0  0  0  0  0  0  0  0  0  0  0  0
   -3.5409   -0.7545  -11.2528 F   0  0  0  0  0  0  0  0  0  0  0  0
    3.1674    0.7701   -6.4627 F   0  0  0  0  0  0  0  0  0  0  0  0
    0.8012    1.2877   -7.6917 F   0  0  0  0  0  0  0  0  0  0  0  0
    0.8226    0.0935  -12.8061 F   0  0  0  0  0  0  0  0  0  0  0  0
    1.0510   -0.7103  -10.2090 F   0  0  0  0  0  0  0  0  0  0  0  0
    3.5149    2.0015  -12.0714 F   0  0  0  0  0  0  0  0  0  0  0  0
    3.2402    1.7063   -9.3875 F   0  0  0  0  0  0  0  0  0  0  0  0
    2.6109    5.1990  -11.5749 F   0  0  0  0  0  0  0  0  0  0  0  0
    0.0834    4.2214  -11.4253 F   0  0  0  0  0  0  0  0  0  0  0  0
   -3.6165    1.2049   -5.2304 F   0  0  0  0  0  0  0  0  0  0  0  0
   -1.8234    2.4610   -6.8347 F   0  0  0  0  0  0  0  0  0  0  0  0
    4.3111    3.7145   -7.7542 F   0  0  0  0  0  0  0  0  0  0  0  0
    2.8465    4.7915   -5.7389 F   0  0  0  0  0  0  0  0  0  0  0  0
   -1.9709    2.1136  -12.0951 F   0  0  0  0  0  0  0  0  0  0  0  0
   -1.1887    2.5870   -9.5397 F   0  0  0  0  0  0  0  0  0  0  0  0
   -0.1348    4.9363   -8.0006 F   0  0  0  0  0  0  0  0  0  0  0  0
    1.9527    6.5713   -8.5797 F   0  0  0  0  0  0  0  0  0  0  0  0
  1  2  1  0
  1  3  1  0
  2  7  1  0
  2 14  1  0
  2 15  1  0
  3  4  1  0
  3 16  1  0
  3 17  1  0
  4  5  1  0
  4 30  1  0
  4 31  1  0
  5  8  1  0
  5 18  1  0
  5 19  1  0
  6  7  1  0
  6  9  1  0
  6 32  1  0
  6 33  1  0
  7 22  1  0
  7 23  1  0
  8 10  1  0
  8 20  1  0
  8 21  1  0
  9 11  1  0
  9 36  1  0
  9 37  1  0
 10 12  1  0
 10 34  1  0
 10 35  1  0
 11 13  1  0
 11 28  1  0
 11 29  1  0
 12 13  1  0
 12 24  1  0
 12 25  1  0
 13 26  1  0
 13 27  1  0
M  CHG  1   1   1
M  RAD  1   1   2
M  END
$$$$

     RDKit          3D

 37 37  0  0  0  0  0  0  0  0999 V2000
   -0.0002   -0.0009   -4.2532 S   0  0  0  0  0  2  0  0  0  0  0  0
   -1.0399    1.1015   -5.7334 Si  0  0  0  0  0  4  0  0  0  0  0  0
    1.4783   -1.2996   -5.0101 Si  0  0  0  0  0  4  0  0  0  0  0  0
    0.6013   -3.1470   -5.9312 Si  0  0  0  0  0  4  0  0  0  0  0  0
    1.2230   -3.3436   -8.0465 Si  0  0  0  0  0  4  0  0  0  0  0  0
   -0.9348    2.7542   -8.9206 Si  0  0  0  0  0  4  0  0  0  0  0  0
    0.2986    2.2018   -7.1126 Si  0  0  0  0  0  4  0  0  0  0  0  0
   -0.1487   -4.6208   -9.2285 Si  0  0  0  0  0  4  0  0  0  0  0  0
   -1.4499    0.8530   -9.9749 Si  0  0  0  0  0  4  0  0  0  0  0  0
   -2.2494   -3.9894   -9.1324 Si  0  0  0  0  0  4  0  0  0  0  0  0
   -3.6206    0.8343  -10.5596 Si  0  0  0  0  0  4  0  0  0  0  0  0
   -2.8506   -2.7501  -10.9026 Si  0  0  0  0  0  4  0  0  0  0  0  0
   -4.4211   -1.2609  -10.3329 Si  0  0  0  0  0  4  0  0  0  0  0  0
   -2.0307    2.2333   -4.9603 F   0  0  0  0  0  0  0  0  0  0  0  0
   -2.0799    0.1072   -6.6466 F   0  0  0  0  0  0  0  0  0  0  0  0
    2.4625   -1.7914   -3.7174 F   0  0  0  0  0  0  0  0  0  0  0  0
    2.5122   -0.5323   -6.1180 F   0  0  0  0  0  0  0  0  0  0  0  0
    1.4648   -1.8318   -8.7822 F   0  0  0  0  0  0  0  0  0  0  0  0
    2.7545   -4.1020   -8.0576 F   0  0  0  0  0  0  0  0  0  0  0  0
    0.3756   -4.6306  -10.8253 F   0  0  0  0  0  0  0  0  0  0  0  0
    0.0052   -6.2166   -8.6541 F   0  0  0  0  0  0  0  0  0  0  0  0
    1.5668    1.2470   -7.6810 F   0  0  0  0  0  0  0  0  0  0  0  0
    0.9103    3.6011   -6.3939 F   0  0  0  0  0  0  0  0  0  0  0  0
   -3.5346   -3.7483  -12.0998 F   0  0  0  0  0  0  0  0  0  0  0  0
   -1.4847   -1.9828  -11.5114 F   0  0  0  0  0  0  0  0  0  0  0  0
   -4.7435   -1.4624   -8.6731 F   0  0  0  0  0  0  0  0  0  0  0  0
   -5.8274   -1.4627  -11.2011 F   0  0  0  0  0  0  0  0  0  0  0  0
   -4.4314    1.8654   -9.4978 F   0  0  0  0  0  0  0  0  0  0  0  0
   -3.7430    1.3398  -12.1530 F   0  0  0  0  0  0  0  0  0  0  0  0
   -1.0684   -3.0455   -5.7579 F   0  0  0  0  0  0  0  0  0  0  0  0
    1.1051   -4.5338   -5.1046 F   0  0  0  0  0  0  0  0  0  0  0  0
   -2.3175    3.5989   -8.4538 F   0  0  0  0  0  0  0  0  0  0  0  0
    0.0468    3.7246   -9.8899 F   0  0  0  0  0  0  0  0  0  0  0  0
   -3.2315   -5.3851   -9.1686 F   0  0  0  0  0  0  0  0  0  0  0  0
   -2.6494   -3.1417   -7.7563 F   0  0  0  0  0  0  0  0  0  0  0  0
   -0.4755    0.7360  -11.3463 F   0  0  0  0  0  0  0  0  0  0  0  0
   -1.2051   -0.4766   -8.9696 F   0  0  0  0  0  0  0  0  0  0  0  0
  1  2  1  0
  1  3  1  0
  2  7  1  0
  2 14  1  0
  2 15  1  0
  3  4  1  0
  3 16  1  0
  3 17  1  0
  4  5  1  0
  4 30  1  0
  4 31  1  0
  5  8  1  0
  5 18  1  0
  5 19  1  0
  6  7  1  0
  6  9  1  0
  6 32  1  0
  6 33  1  0
  7 22  1  0
  7 23  1  0
  8 10  1  0
  8 20  1  0
  8 21  1  0
  9 11  1  0
  9 36  1  0
  9 37  1  0
 10 12  1  0
 10 34  1  0
 10 35  1  0
 11 13  1  0
 11 28  1  0
 11 29  1  0
 12 13  1  0
 12 24  1  0
 12 25  1  0
 13 26  1  0
 13 27  1  0
M  CHG  1   1   1
M  RAD  1   1   2
M  END
$$$$

     RDKit          3D

 37 37  0  0  0  0  0  0  0  0999 V2000
   -0.0002   -0.0009   -4.2532 S   0  0  0  0  0  2  0  0  0  0  0  0
   -1.8488    0.3359   -5.2057 Si  0  0  0  0  0  4  0  0  0  0  0  0
    1.6896    0.1577   -5.5059 Si  0  0  0  0  0  4  0  0  0  0  0  0
    2.0752   -1.7466   -6.6423 Si  0  0  0  0  0  4  0  0  0  0  0  0
    3.4990   -1.4466   -8.2900 Si  0  0  0  0  0  4  0  0  0  0  0  0
   -2.7477    2.1096   -8.3104 Si  0  0  0  0  0  4  0  0  0  0  0  0
   -1.7533    0.3041   -7.4052 Si  0  0  0  0  0  4  0  0  0  0  0  0
    2.6072   -0.4762  -10.0684 Si  0  0  0  0  0  4  0  0  0  0  0  0
   -1.2600    3.4221   -9.2995 Si  0  0  0  0  0  4  0  0  0  0  0  0
    0.9111   -1.6147  -10.9130 Si  0  0  0  0  0  4  0  0  0  0  0  0
   -0.8949    2.8846  -11.4047 Si  0  0  0  0  0  4  0  0  0  0  0  0
    0.0672   -0.4497  -12.6315 Si  0  0  0  0  0  4  0  0  0  0  0  0
   -1.6196    0.8664  -11.9362 Si  0  0  0  0  0  4  0  0  0  0  0  0
   -2.9471   -0.8477   -4.6484 F   0  0  0  0  0  0  0  0  0  0  0  0
   -2.5145    1.8320   -4.7231 F   0  0  0  0  0  0  0  0  0  0  0  0
    3.0539    0.3777   -4.4982 F   0  0  0  0  0  0  0  0  0  0  0  0
    1.6533    1.4811   -6.5315 F   0  0  0  0  0  0  0  0  0  0  0  0
    4.1327   -2.9502   -8.7558 F   0  0  0  0  0  0  0  0  0  0  0  0
    4.7835   -0.5107   -7.7524 F   0  0  0  0  0  0  0  0  0  0  0  0
    2.1544    1.1227   -9.6988 F   0  0  0  0  0  0  0  0  0  0  0  0
    3.8104   -0.3614  -11.2550 F   0  0  0  0  0  0  0  0  0  0  0  0
   -2.5348   -1.0979   -7.9734 F   0  0  0  0  0  0  0  0  0  0  0  0
   -0.1588    0.3174   -7.8971 F   0  0  0  0  0  0  0  0  0  0  0  0
   -0.4819   -1.4710  -13.8468 F   0  0  0  0  0  0  0  0  0  0  0  0
    1.2783    0.5384  -13.2629 F   0  0  0  0  0  0  0  0  0  0  0  0
   -2.6767    1.0262  -13.2664 F   0  0  0  0  0  0  0  0  0  0  0  0
   -2.4891    0.1397  -10.7070 F   0  0  0  0  0  0  0  0  0  0  0  0
   -1.5975    4.0890  -12.3881 F   0  0  0  0  0  0  0  0  0  0  0  0
    0.7779    2.9476  -11.7331 F   0  0  0  0  0  0  0  0  0  0  0  0
    0.6406   -2.4683   -7.1221 F   0  0  0  0  0  0  0  0  0  0  0  0
    2.7958   -2.8163   -5.5197 F   0  0  0  0  0  0  0  0  0  0  0  0
   -4.0028    1.6674   -9.3227 F   0  0  0  0  0  0  0  0  0  0  0  0
   -3.4354    2.9859   -7.0179 F   0  0  0  0  0  0  0  0  0  0  0  0
   -0.2535   -2.0083   -9.7896 F   0  0  0  0  0  0  0  0  0  0  0  0
    1.5221   -3.0697  -11.5478 F   0  0  0  0  0  0  0  0  0  0  0  0
   -1.7880    5.0287   -9.1607 F   0  0  0  0  0  0  0  0  0  0  0  0
    0.2128    3.3401   -8.4441 F   0  0  0  0  0  0  0  0  0  0  0  0
  1  2  1  0
  1  3  1  0
  2  7  1  0
  2 14  1  0
  2 15  1  0
  3  4  1  0
  3 16  1  0
  3 17  1  0
  4  5  1  0
  4 30  1  0
  4 31  1  0
  5  8  1  0
  5 18  1  0
  5 19  1  0
  6  7  1  0
  6  9  1  0
  6 32  1  0
  6 33  1  0
  7 22  1  0
  7 23  1  0
  8 10  1  0
  8 20  1  0
  8 21  1  0
  9 11  1  0
  9 36  1  0
  9 37  1  0
 10 12  1  0
 10 34  1  0
 10 35  1  0
 11 13  1  0
 11 28  1  0
 11 29  1  0
 12 13  1  0
 12 24  1  0
 12 25  1  0
 13 26  1  0
 13 27  1  0
M  CHG  1   1   1
M  RAD  1   1   2
M  END
$$$$
