
     RDKit          3D

 37 37  0  0  0  0  0  0  0  0999 V2000
    0.0002    0.0000    2.7857 S   0  0  0  0  0  2  0  0  0  0  0  0
   -1.9207   -0.6660    3.4790 Si  0  0  0  0  0  4  0  0  0  0  0  0
    0.5633    1.8505    3.6913 Si  0  0  0  0  0  4  0  0  0  0  0  0
    2.6298    1.6199    4.5271 Si  0  0  0  0  0  4  0  0  0  0  0  0
    2.9351    3.0595    6.1806 Si  0  0  0  0  0  4  0  0  0  0  0  0
   -2.3713   -0.3826    7.1243 Si  0  0  0  0  0  4  0  0  0  0  0  0
   -1.7212   -1.6881    5.4478 Si  0  0  0  0  0  4  0  0  0  0  0  0
    3.7192    2.0801    8.0186 Si  0  0  0  0  0  4  0  0  0  0  0  0
   -2.4891   -1.5927    8.9957 Si  0  0  0  0  0  4  0  0  0  0  0  0
    2.5155    0.2839    8.5625 Si  0  0  0  0  0  4  0  0  0  0  0  0
   -0.4972   -2.3307    9.6335 Si  0  0  0  0  0  4  0  0  0  0  0  0
    1.4228    0.7099   10.4542 Si  0  0  0  0  0  4  0  0  0  0  0  0
    0.3823   -1.0713   11.2489 Si  0  0  0  0  0  4  0  0  0  0  0  0
   -2.5598   -1.7060    2.3006 F   0  0  0  0  0  0  0  0  0  0  0  0
   -2.9527    0.6694    3.6091 F   0  0  0  0  0  0  0  0  0  0  0  0
    0.5532    3.0669    2.5027 F   0  0  0  0  0  0  0  0  0  0  0  0
   -0.5287    2.3166    4.8761 F   0  0  0  0  0  0  0  0  0  0  0  0
    1.4597    3.7884    6.5730 F   0  0  0  0  0  0  0  0  0  0  0  0
    4.0172    4.2933    5.7574 F   0  0  0  0  0  0  0  0  0  0  0  0
    5.3589    1.6784    7.8224 F   0  0  0  0  0  0  0  0  0  0  0  0
    3.6689    3.2397    9.2671 F   0  0  0  0  0  0  0  0  0  0  0  0
   -0.1632   -2.2770    5.6795 F   0  0  0  0  0  0  0  0  0  0  0  0
   -2.7556   -3.0379    5.4209 F   0  0  0  0  0  0  0  0  0  0  0  0
    0.3413    1.9761   10.1996 F   0  0  0  0  0  0  0  0  0  0  0  0
    2.5736    1.2252   11.5995 F   0  0  0  0  0  0  0  0  0  0  0  0
   -0.8681   -0.5935   12.2856 F   0  0  0  0  0  0  0  0  0  0  0  0
    1.4600   -2.0024   12.1429 F   0  0  0  0  0  0  0  0  0  0  0  0
   -0.7160   -3.8923   10.2846 F   0  0  0  0  0  0  0  0  0  0  0  0
    0.5705   -2.4965    8.3446 F   0  0  0  0  0  0  0  0  0  0  0  0
    2.9501    0.0379    4.9657 F   0  0  0  0  0  0  0  0  0  0  0  0
    3.7110    2.0228    3.2759 F   0  0  0  0  0  0  0  0  0  0  0  0
   -1.3334    0.8948    7.3928 F   0  0  0  0  0  0  0  0  0  0  0  0
   -3.9400    0.1574    6.7762 F   0  0  0  0  0  0  0  0  0  0  0  0
    3.5886   -1.0110    8.8128 F   0  0  0  0  0  0  0  0  0  0  0  0
    1.4754   -0.1675    7.3286 F   0  0  0  0  0  0  0  0  0  0  0  0
   -3.2333   -0.6636   10.1772 F   0  0  0  0  0  0  0  0  0  0  0  0
   -3.5064   -2.9140    8.6807 F   0  0  0  0  0  0  0  0  0  0  0  0
  1  2  1  0
  1  3  1  0
  2  7  1  0
  2 14  1  0
  2 15  1  0
  3  4  1  0
  3 16  1  0
  3 17  1  0
  4  5  1  0
  4 30  1  0
  4 31  1  0
  5  8  1  0
  5 18  1  0
  5 19  1  0
  6  7  1  0
  6  9  1  0
  6 32  1  0
  6 33  1  0
  7 22  1  0
  7 23  1  0
  8 10  1  0
  8 20  1  0
  8 21  1  0
  9 11  1  0
  9 36  1  0
  9 37  1  0
 10 12  1  0
 10 34  1  0
 10 35  1  0
 11 13  1  0
 11 28  1  0
 11 29  1  0
 12 13  1  0
 12 24  1  0
 12 25  1  0
 13 26  1  0
 13 27  1  0
M  CHG  1   1   1
M  RAD  1   1   2
M  END
$$$$

     RDKit          3D

 37 37  0  0  0  0  0  0  0  0999 V2000
    0.0002    0.0000    2.7857 S   0  0  0  0  0  2  0  0  0  0  0  0
    1.8446   -0.1606    3.8363 Si  0  0  0  0  0  4  0  0  0  0  0  0
   -1.1582    1.6837    3.3431 Si  0  0  0  0  0  4  0  0  0  0  0  0
   -0.4855    2.5739    5.2840 Si  0  0  0  0  0  4  0  0  0  0  0  0
   -2.0360    4.0067    6.0012 Si  0  0  0  0  0  4  0  0  0  0  0  0
    2.3612   -1.0185    7.3836 Si  0  0  0  0  0  4  0  0  0  0  0  0
    1.7549   -1.7871    5.3969 Si  0  0  0  0  0  4  0  0  0  0  0  0
   -1.8679    4.3622    8.2022 Si  0  0  0  0  0  4  0  0  0  0  0  0
    1.1060   -1.8553    9.0243 Si  0  0  0  0  0  4  0  0  0  0  0  0
    0.0637    3.6748    9.0053 Si  0  0  0  0  0  4  0  0  0  0  0  0
   -1.0277   -1.3946    8.8001 Si  0  0  0  0  0  4  0  0  0  0  0  0
   -0.0742    1.8669   10.2671 Si  0  0  0  0  0  4  0  0  0  0  0  0
   -1.6790    0.4877    9.7322 Si  0  0  0  0  0  4  0  0  0  0  0  0
    3.0296   -0.6079    2.7054 F   0  0  0  0  0  0  0  0  0  0  0  0
    2.3435    1.2871    4.5104 F   0  0  0  0  0  0  0  0  0  0  0  0
   -2.7621    1.1722    3.5624 F   0  0  0  0  0  0  0  0  0  0  0  0
   -1.1731    2.8762    2.1607 F   0  0  0  0  0  0  0  0  0  0  0  0
   -1.8555    5.4353    5.1233 F   0  0  0  0  0  0  0  0  0  0  0  0
   -3.5446    3.3313    5.6897 F   0  0  0  0  0  0  0  0  0  0  0  0
   -3.1931    3.7253    9.0329 F   0  0  0  0  0  0  0  0  0  0  0  0
   -1.9611    6.0532    8.4215 F   0  0  0  0  0  0  0  0  0  0  0  0
    2.7803   -3.0623    4.9853 F   0  0  0  0  0  0  0  0  0  0  0  0
    0.1858   -2.4006    5.4036 F   0  0  0  0  0  0  0  0  0  0  0  0
    1.4416    1.0842   10.1917 F   0  0  0  0  0  0  0  0  0  0  0  0
   -0.2157    2.3792   11.8915 F   0  0  0  0  0  0  0  0  0  0  0  0
   -2.7557    1.2447    8.6421 F   0  0  0  0  0  0  0  0  0  0  0  0
   -2.6215    0.1675   11.1217 F   0  0  0  0  0  0  0  0  0  0  0  0
   -1.4157   -1.4413    7.1375 F   0  0  0  0  0  0  0  0  0  0  0  0
   -1.9163   -2.6812    9.4907 F   0  0  0  0  0  0  0  0  0  0  0  0
    0.9801    3.3499    5.1328 F   0  0  0  0  0  0  0  0  0  0  0  0
   -0.4357    1.2921    6.3871 F   0  0  0  0  0  0  0  0  0  0  0  0
    2.3292    0.6613    7.3582 F   0  0  0  0  0  0  0  0  0  0  0  0
    3.9567   -1.4782    7.6887 F   0  0  0  0  0  0  0  0  0  0  0  0
    1.1075    3.4312    7.6774 F   0  0  0  0  0  0  0  0  0  0  0  0
    0.8124    4.9037    9.9285 F   0  0  0  0  0  0  0  0  0  0  0  0
    1.7484   -1.4267   10.5040 F   0  0  0  0  0  0  0  0  0  0  0  0
    1.2769   -3.5555    8.9190 F   0  0  0  0  0  0  0  0  0  0  0  0
  1  2  1  0
  1  3  1  0
  2  7  1  0
  2 14  1  0
  2 15  1  0
  3  4  1  0
  3 16  1  0
  3 17  1  0
  4  5  1  0
  4 30  1  0
  4 31  1  0
  5  8  1  0
  5 18  1  0
  5 19  1  0
  6  7  1  0
  6  9  1  0
  6 32  1  0
  6 33  1  0
  7 22  1  0
  7 23  1  0
  8 10  1  0
  8 20  1  0
  8 21  1  0
  9 11  1  0
  9 36  1  0
  9 37  1  0
 10 12  1  0
 10 34  1  0
 10 35  1  0
 11 13  1  0
 11 28  1  0
 11 29  1  0
 12 13  1  0
 12 24  1  0
 12 25  1  0
 13 26  1  0
 13 27  1  0
M  CHG  1   1   1
M  RAD  1   1   2
M  END
$$$$

     RDKit          3D

 37 37  0  0  0  0  0  0  0  0999 V2000
    0.0002    0.0000    2.7857 S   0  0  0  0  0  2  0  0  0  0  0  0
   -0.0213   -1.8513    3.8364 Si  0  0  0  0  0  4  0  0  0  0  0  0
    1.5920    1.2817    3.3430 Si  0  0  0  0  0  4  0  0  0  0  0  0
    2.5304    0.6779    5.2839 Si  0  0  0  0  0  4  0  0  0  0  0  0
    3.8426    2.3317    6.0009 Si  0  0  0  0  0  4  0  0  0  0  0  0
   -0.8378   -2.4307    7.3838 Si  0  0  0  0  0  4  0  0  0  0  0  0
   -1.6499   -1.8839    5.3970 Si  0  0  0  0  0  4  0  0  0  0  0  0
    4.2098    2.1909    8.2019 Si  0  0  0  0  0  4  0  0  0  0  0  0
   -1.7665   -1.2419    9.0244 Si  0  0  0  0  0  4  0  0  0  0  0  0
    3.6696    0.2131    9.0051 Si  0  0  0  0  0  4  0  0  0  0  0  0
   -1.4675    0.9204    8.8001 Si  0  0  0  0  0  4  0  0  0  0  0  0
    1.8565    0.2148   10.2670 Si  0  0  0  0  0  4  0  0  0  0  0  0
    0.3606    1.7114    9.7321 Si  0  0  0  0  0  4  0  0  0  0  0  0
   -0.3783   -3.0665    2.7055 F   0  0  0  0  0  0  0  0  0  0  0  0
    1.4598   -2.2399    4.5104 F   0  0  0  0  0  0  0  0  0  0  0  0
    0.9615    2.8427    3.5622 F   0  0  0  0  0  0  0  0  0  0  0  0
    2.7801    1.3861    2.1605 F   0  0  0  0  0  0  0  0  0  0  0  0
    5.2807    2.2591    5.1230 F   0  0  0  0  0  0  0  0  0  0  0  0
    3.0557    3.7853    5.6894 F   0  0  0  0  0  0  0  0  0  0  0  0
    3.4752    3.4645    9.0326 F   0  0  0  0  0  0  0  0  0  0  0  0
    5.8890    2.4109    8.4211 F   0  0  0  0  0  0  0  0  0  0  0  0
   -2.8444   -3.0024    4.9855 F   0  0  0  0  0  0  0  0  0  0  0  0
   -2.3795   -0.3654    5.4037 F   0  0  0  0  0  0  0  0  0  0  0  0
    1.1900   -1.3555   10.1917 F   0  0  0  0  0  0  0  0  0  0  0  0
    2.3568    0.3945   11.8914 F   0  0  0  0  0  0  0  0  0  0  0  0
    1.0344    2.8419    8.6419 F   0  0  0  0  0  0  0  0  0  0  0  0
   -0.0296    2.6272   11.1216 F   0  0  0  0  0  0  0  0  0  0  0  0
   -1.5433    1.3037    7.1376 F   0  0  0  0  0  0  0  0  0  0  0  0
   -2.8173    1.7098    9.4908 F   0  0  0  0  0  0  0  0  0  0  0  0
    3.4143   -0.7253    5.1327 F   0  0  0  0  0  0  0  0  0  0  0  0
    1.2560    0.5320    6.3871 F   0  0  0  0  0  0  0  0  0  0  0  0
    0.8348   -2.2726    7.3582 F   0  0  0  0  0  0  0  0  0  0  0  0
   -1.1763   -4.0562    7.6889 F   0  0  0  0  0  0  0  0  0  0  0  0
    3.5051   -0.8460    7.6773 F   0  0  0  0  0  0  0  0  0  0  0  0
    4.9514   -0.4410    9.9283 F   0  0  0  0  0  0  0  0  0  0  0  0
   -1.2908   -1.8502   10.5041 F   0  0  0  0  0  0  0  0  0  0  0  0
   -3.4491   -1.5401    8.9192 F   0  0  0  0  0  0  0  0  0  0  0  0
  1  2  1  0
  1  3  1  0
  2  7  1  0
  2 14  1  0
  2 15  1  0
  3  4  1  0
  3 16  1  0
  3 17  1  0
  4  5  1  0
  4 30  1  0
  4 31  1  0
  5  8  1  0
  5 18  1  0
  5 19  1  0
  6  7  1  0
  6  9  1  0
  6 32  1  0
  6 33  1  0
  7 22  1  0
  7 23  1  0
  8 10  1  0
  8 20  1  0
  8 21  1  0
  9 11  1  0
  9 36  1  0
  9 37  1  0
 10 12  1  0
 10 34  1  0
 10 35  1  0
 11 13  1  0
 11 28  1  0
 11 29  1  0
 12 13  1  0
 12 24  1  0
 12 25  1  0
 13 26  1  0
 13 27  1  0
M  CHG  1   1   1
M  RAD  1   1   2
M  END
$$$$

     RDKit          3D

 37 37  0  0  0  0  0  0  0  0999 V2000
    0.0002    0.0000    2.7857 S   0  0  0  0  0  2  0  0  0  0  0  0
   -0.2336   -1.8366    3.8364 Si  0  0  0  0  0  4  0  0  0  0  0  0
    1.7286    1.0905    3.3430 Si  0  0  0  0  0  4  0  0  0  0  0  0
    2.5915    0.3830    5.2839 Si  0  0  0  0  0  4  0  0  0  0  0  0
    4.0848    1.8752    6.0009 Si  0  0  0  0  0  4  0  0  0  0  0  0
   -1.1113   -2.3184    7.3838 Si  0  0  0  0  0  4  0  0  0  0  0  0
   -1.8552   -1.6821    5.3970 Si  0  0  0  0  0  4  0  0  0  0  0  0
    4.4335    1.6933    8.2019 Si  0  0  0  0  0  4  0  0  0  0  0  0
   -1.8974   -1.0308    9.0244 Si  0  0  0  0  0  4  0  0  0  0  0  0
    3.6698   -0.2094    9.0051 Si  0  0  0  0  0  4  0  0  0  0  0  0
   -1.3522    1.0828    8.8001 Si  0  0  0  0  0  4  0  0  0  0  0  0
    1.8689    0.0004   10.2670 Si  0  0  0  0  0  4  0  0  0  0  0  0
    0.5547    1.6588    9.7321 Si  0  0  0  0  0  4  0  0  0  0  0  0
   -0.7278   -3.0028    2.7056 F   0  0  0  0  0  0  0  0  0  0  0  0
    1.1931   -2.3926    4.5104 F   0  0  0  0  0  0  0  0  0  0  0  0
    1.2814    2.7135    3.5622 F   0  0  0  0  0  0  0  0  0  0  0  0
    2.9208    1.0579    2.1605 F   0  0  0  0  0  0  0  0  0  0  0  0
    5.5051    1.6381    5.1230 F   0  0  0  0  0  0  0  0  0  0  0  0
    3.4700    3.4095    5.6894 F   0  0  0  0  0  0  0  0  0  0  0  0
    3.8499    3.0428    9.0326 F   0  0  0  0  0  0  0  0  0  0  0  0
    6.1268    1.7191    8.4211 F   0  0  0  0  0  0  0  0  0  0  0  0
   -3.1702   -2.6560    4.9855 F   0  0  0  0  0  0  0  0  0  0  0  0
   -2.4058   -0.0898    5.4037 F   0  0  0  0  0  0  0  0  0  0  0  0
    1.0265   -1.4831   10.1917 F   0  0  0  0  0  0  0  0  0  0  0  0
    2.3865    0.1214   11.8914 F   0  0  0  0  0  0  0  0  0  0  0  0
    1.3538    2.7044    8.6419 F   0  0  0  0  0  0  0  0  0  0  0  0
    0.2722    2.6133   11.1216 F   0  0  0  0  0  0  0  0  0  0  0  0
   -1.3834    1.4723    7.1375 F   0  0  0  0  0  0  0  0  0  0  0  0
   -2.6024    2.0220    9.4908 F   0  0  0  0  0  0  0  0  0  0  0  0
    3.3085   -1.1124    5.1327 F   0  0  0  0  0  0  0  0  0  0  0  0
    1.3088    0.3843    6.3871 F   0  0  0  0  0  0  0  0  0  0  0  0
    0.5685   -2.3533    7.3582 F   0  0  0  0  0  0  0  0  0  0  0  0
   -1.6341   -3.8944    7.6889 F   0  0  0  0  0  0  0  0  0  0  0  0
    3.3848   -1.2427    7.6773 F   0  0  0  0  0  0  0  0  0  0  0  0
    4.8680   -1.0064    9.9283 F   0  0  0  0  0  0  0  0  0  0  0  0
   -1.4946   -1.6897   10.5041 F   0  0  0  0  0  0  0  0  0  0  0  0
   -3.6031   -1.1340    8.9192 F   0  0  0  0  0  0  0  0  0  0  0  0
  1  2  1  0
  1  3  1  0
  2  7  1  0
  2 14  1  0
  2 15  1  0
  3  4  1  0
  3 16  1  0
  3 17  1  0
  4  5  1  0
  4 30  1  0
  4 31  1  0
  5  8  1  0
  5 18  1  0
  5 19  1  0
  6  7  1  0
  6  9  1  0
  6 32  1  0
  6 33  1  0
  7 22  1  0
  7 23  1  0
  8 10  1  0
  8 20  1  0
  8 21  1  0
  9 11  1  0
  9 36  1  0
  9 37  1  0
 10 12  1  0
 10 34  1  0
 10 35  1  0
 11 13  1  0
 11 28  1  0
 11 29  1  0
 12 13  1  0
 12 24  1  0
 12 25  1  0
 13 26  1  0
 13 27  1  0
M  CHG  1   1   1
M  RAD  1   1   2
M  END
$$$$

     RDKit          3D

 37 37  0  0  0  0  0  0  0  0999 V2000
    0.0002    0.0000    2.7857 S   0  0  0  0  0  2  0  0  0  0  0  0
    0.1852    1.8421    3.8364 Si  0  0  0  0  0  4  0  0  0  0  0  0
   -1.6987   -1.1360    3.3432 Si  0  0  0  0  0  4  0  0  0  0  0  0
   -2.5798   -0.4517    5.2841 Si  0  0  0  0  0  4  0  0  0  0  0  0
   -4.0330   -1.9830    6.0013 Si  0  0  0  0  0  4  0  0  0  0  0  0
    1.0501    2.3471    7.3837 Si  0  0  0  0  0  4  0  0  0  0  0  0
    1.8105    1.7307    5.3969 Si  0  0  0  0  0  4  0  0  0  0  0  0
   -4.3861   -1.8104    8.2023 Si  0  0  0  0  0  4  0  0  0  0  0  0
    1.8703    1.0809    9.0242 Si  0  0  0  0  0  4  0  0  0  0  0  0
   -3.6732    0.1119    9.0054 Si  0  0  0  0  0  4  0  0  0  0  0  0
    1.3813   -1.0465    8.8000 Si  0  0  0  0  0  4  0  0  0  0  0  0
   -1.8672   -0.0500   10.2672 Si  0  0  0  0  0  4  0  0  0  0  0  0
   -0.5095   -1.6729    9.7322 Si  0  0  0  0  0  4  0  0  0  0  0  0
    0.6481    3.0211    2.7055 F   0  0  0  0  0  0  0  0  0  0  0  0
   -1.2557    2.3601    4.5105 F   0  0  0  0  0  0  0  0  0  0  0  0
   -1.2085   -2.7466    3.5623 F   0  0  0  0  0  0  0  0  0  0  0  0
   -2.8914   -1.1351    2.1607 F   0  0  0  0  0  0  0  0  0  0  0  0
   -5.4591   -1.7837    5.1235 F   0  0  0  0  0  0  0  0  0  0  0  0
   -3.3776   -3.5005    5.6897 F   0  0  0  0  0  0  0  0  0  0  0  0
   -3.7669   -3.1439    9.0329 F   0  0  0  0  0  0  0  0  0  0  0  0
   -6.0782   -1.8811    8.4216 F   0  0  0  0  0  0  0  0  0  0  0  0
    3.0991    2.7392    4.9852 F   0  0  0  0  0  0  0  0  0  0  0  0
    2.4031    0.1537    5.4035 F   0  0  0  0  0  0  0  0  0  0  0  0
   -1.0645    1.4553   10.1918 F   0  0  0  0  0  0  0  0  0  0  0  0
   -2.3813   -0.1847   11.8916 F   0  0  0  0  0  0  0  0  0  0  0  0
   -1.2806   -2.7394    8.6420 F   0  0  0  0  0  0  0  0  0  0  0  0
   -0.2016   -2.6196   11.1216 F   0  0  0  0  0  0  0  0  0  0  0  0
    1.4227   -1.4350    7.1374 F   0  0  0  0  0  0  0  0  0  0  0  0
    2.6561   -1.9522    9.4905 F   0  0  0  0  0  0  0  0  0  0  0  0
   -3.3363    1.0241    5.1330 F   0  0  0  0  0  0  0  0  0  0  0  0
   -1.2974   -0.4189    6.3872 F   0  0  0  0  0  0  0  0  0  0  0  0
   -0.6300    2.3374    7.3583 F   0  0  0  0  0  0  0  0  0  0  0  0
    1.5309    3.9364    7.6888 F   0  0  0  0  0  0  0  0  0  0  0  0
   -3.4158    1.1524    7.6776 F   0  0  0  0  0  0  0  0  0  0  0  0
   -4.8920    0.8768    9.9287 F   0  0  0  0  0  0  0  0  0  0  0  0
    1.4503    1.7288   10.5040 F   0  0  0  0  0  0  0  0  0  0  0  0
    3.5726    1.2293    8.9189 F   0  0  0  0  0  0  0  0  0  0  0  0
  1  2  1  0
  1  3  1  0
  2  7  1  0
  2 14  1  0
  2 15  1  0
  3  4  1  0
  3 16  1  0
  3 17  1  0
  4  5  1  0
  4 30  1  0
  4 31  1  0
  5  8  1  0
  5 18  1  0
  5 19  1  0
  6  7  1  0
  6  9  1  0
  6 32  1  0
  6 33  1  0
  7 22  1  0
  7 23  1  0
  8 10  1  0
  8 20  1  0
  8 21  1  0
  9 11  1  0
  9 36  1  0
  9 37  1  0
 10 12  1  0
 10 34  1  0
 10 35  1  0
 11 13  1  0
 11 28  1  0
 11 29  1  0
 12 13  1  0
 12 24  1  0
 12 25  1  0
 13 26  1  0
 13 27  1  0
M  CHG  1   1   1
M  RAD  1   1   2
M  END
$$$$

     RDKit          3D

 37 37  0  0  0  0  0  0  0  0999 V2000
    0.0002    0.0000    2.7857 S   0  0  0  0  0  2  0  0  0  0  0  0
    1.8425    0.1831    3.8363 Si  0  0  0  0  0  4  0  0  0  0  0  0
   -1.4495    1.4405    3.3431 Si  0  0  0  0  0  4  0  0  0  0  0  0
   -0.9529    2.4398    5.2841 Si  0  0  0  0  0  4  0  0  0  0  0  0
   -2.7415    3.5612    6.0012 Si  0  0  0  0  0  4  0  0  0  0  0  0
    2.5088   -0.5646    7.3836 Si  0  0  0  0  0  4  0  0  0  0  0  0
    2.0550   -1.4320    5.3969 Si  0  0  0  0  0  4  0  0  0  0  0  0
   -2.6420    3.9416    8.2022 Si  0  0  0  0  0  4  0  0  0  0  0  0
    1.4299   -1.6190    9.0242 Si  0  0  0  0  0  4  0  0  0  0  0  0
   -0.6166    3.6232    9.0053 Si  0  0  0  0  0  4  0  0  0  0  0  0
   -0.7522   -1.5606    8.8001 Si  0  0  0  0  0  4  0  0  0  0  0  0
   -0.4180    1.8209   10.2671 Si  0  0  0  0  0  4  0  0  0  0  0  0
   -1.7402    0.1689    9.7322 Si  0  0  0  0  0  4  0  0  0  0  0  0
    3.0897   -0.0374    2.7054 F   0  0  0  0  0  0  0  0  0  0  0  0
    2.0652    1.6980    4.5104 F   0  0  0  0  0  0  0  0  0  0  0  0
   -2.9312    0.6414    3.5624 F   0  0  0  0  0  0  0  0  0  0  0  0
   -1.6845    2.6098    2.1607 F   0  0  0  0  0  0  0  0  0  0  0  0
   -2.8282    4.9986    5.1234 F   0  0  0  0  0  0  0  0  0  0  0  0
   -4.0993    2.6186    5.6897 F   0  0  0  0  0  0  0  0  0  0  0  0
   -3.8267    3.0708    9.0329 F   0  0  0  0  0  0  0  0  0  0  0  0
   -3.0462    5.5863    8.4215 F   0  0  0  0  0  0  0  0  0  0  0  0
    3.2985   -2.4957    4.9852 F   0  0  0  0  0  0  0  0  0  0  0  0
    0.6263   -2.3249    5.4036 F   0  0  0  0  0  0  0  0  0  0  0  0
    1.2163    1.3319   10.1917 F   0  0  0  0  0  0  0  0  0  0  0  0
   -0.6518    2.2982   11.8915 F   0  0  0  0  0  0  0  0  0  0  0  0
   -2.9383    0.7138    8.6421 F   0  0  0  0  0  0  0  0  0  0  0  0
   -2.6073   -0.3201   11.1217 F   0  0  0  0  0  0  0  0  0  0  0  0
   -1.1249   -1.6782    7.1375 F   0  0  0  0  0  0  0  0  0  0  0  0
   -1.3877   -2.9893    9.4907 F   0  0  0  0  0  0  0  0  0  0  0  0
    0.3441    3.4733    5.1329 F   0  0  0  0  0  0  0  0  0  0  0  0
   -0.6671    1.1892    6.3872 F   0  0  0  0  0  0  0  0  0  0  0  0
    2.1669    1.0803    7.3582 F   0  0  0  0  0  0  0  0  0  0  0  0
    4.1618   -0.7215    7.6887 F   0  0  0  0  0  0  0  0  0  0  0  0
    0.4542    3.5767    7.6774 F   0  0  0  0  0  0  0  0  0  0  0  0
   -0.1080    4.9693    9.9285 F   0  0  0  0  0  0  0  0  0  0  0  0
    1.9820   -1.0791   10.5040 F   0  0  0  0  0  0  0  0  0  0  0  0
    1.9121   -3.2583    8.9189 F   0  0  0  0  0  0  0  0  0  0  0  0
  1  2  1  0
  1  3  1  0
  2  7  1  0
  2 14  1  0
  2 15  1  0
  3  4  1  0
  3 16  1  0
  3 17  1  0
  4  5  1  0
  4 30  1  0
  4 31  1  0
  5  8  1  0
  5 18  1  0
  5 19  1  0
  6  7  1  0
  6  9  1  0
  6 32  1  0
  6 33  1  0
  7 22  1  0
  7 23  1  0
  8 10  1  0
  8 20  1  0
  8 21  1  0
  9 11  1  0
  9 36  1  0
  9 37  1  0
 10 12  1  0
 10 34  1  0
 10 35  1  0
 11 13  1  0
 11 28  1  0
 11 29  1  0
 12 13  1  0
 12 24  1  0
 12 25  1  0
 13 26  1  0
 13 27  1  0
M  CHG  1   1   1
M  RAD  1   1   2
M  END
$$$$

     RDKit          3D

 37 37  0  0  0  0  0  0  0  0999 V2000
    0.0002    0.0000    2.7857 S   0  0  0  0  0  2  0  0  0  0  0  0
   -1.8492   -0.0851    3.8365 Si  0  0  0  0  0  4  0  0  0  0  0  0
    1.3714   -1.5154    3.3430 Si  0  0  0  0  0  4  0  0  0  0  0  0
    0.8227   -2.4869    5.2840 Si  0  0  0  0  0  4  0  0  0  0  0  0
    2.5493   -3.7017    6.0010 Si  0  0  0  0  0  4  0  0  0  0  0  0
   -2.4746    0.6969    7.3839 Si  0  0  0  0  0  4  0  0  0  0  0  0
   -1.9755    1.5390    5.3970 Si  0  0  0  0  0  4  0  0  0  0  0  0
    2.4300   -4.0763    8.2020 Si  0  0  0  0  0  4  0  0  0  0  0  0
   -1.3411    1.6926    9.0244 Si  0  0  0  0  0  4  0  0  0  0  0  0
    0.4244   -3.6508    9.0053 Si  0  0  0  0  0  4  0  0  0  0  0  0
    0.8348    1.5185    8.8000 Si  0  0  0  0  0  4  0  0  0  0  0  0
    0.3218   -1.8406   10.2671 Si  0  0  0  0  0  4  0  0  0  0  0  0
    1.7298   -0.2610    9.7321 Si  0  0  0  0  0  4  0  0  0  0  0  0
   -3.0830    0.2013    2.7057 F   0  0  0  0  0  0  0  0  0  0  0  0
   -2.1519   -1.5861    4.5106 F   0  0  0  0  0  0  0  0  0  0  0  0
    2.8935   -0.7960    3.5621 F   0  0  0  0  0  0  0  0  0  0  0  0
    1.5440   -2.6955    2.1606 F   0  0  0  0  0  0  0  0  0  0  0  0
    2.5596   -5.1416    5.1232 F   0  0  0  0  0  0  0  0  0  0  0  0
    3.9552   -2.8324    5.6894 F   0  0  0  0  0  0  0  0  0  0  0  0
    3.6593   -3.2695    9.0326 F   0  0  0  0  0  0  0  0  0  0  0  0
    2.7463   -5.7400    8.4213 F   0  0  0  0  0  0  0  0  0  0  0  0
   -3.1608    2.6671    4.9855 F   0  0  0  0  0  0  0  0  0  0  0  0
   -0.5015    2.3549    5.4036 F   0  0  0  0  0  0  0  0  0  0  0  0
   -1.2843   -1.2655   10.1918 F   0  0  0  0  0  0  0  0  0  0  0  0
    0.5300   -2.3296   11.8914 F   0  0  0  0  0  0  0  0  0  0  0  0
    2.8971   -0.8687    8.6419 F   0  0  0  0  0  0  0  0  0  0  0  0
    2.6217    0.1813   11.1215 F   0  0  0  0  0  0  0  0  0  0  0  0
    1.2130    1.6161    7.1374 F   0  0  0  0  0  0  0  0  0  0  0  0
    1.5453    2.9115    9.4906 F   0  0  0  0  0  0  0  0  0  0  0  0
   -0.5273   -3.4501    5.1329 F   0  0  0  0  0  0  0  0  0  0  0  0
    0.6037   -1.2230    6.3871 F   0  0  0  0  0  0  0  0  0  0  0  0
   -2.2204   -0.9639    7.3583 F   0  0  0  0  0  0  0  0  0  0  0  0
   -4.1169    0.9412    7.6890 F   0  0  0  0  0  0  0  0  0  0  0  0
   -0.6425   -3.5476    7.6775 F   0  0  0  0  0  0  0  0  0  0  0  0
   -0.1548   -4.9680    9.9285 F   0  0  0  0  0  0  0  0  0  0  0  0
   -1.9209    1.1827   10.5042 F   0  0  0  0  0  0  0  0  0  0  0  0
   -1.7357    3.3552    8.9191 F   0  0  0  0  0  0  0  0  0  0  0  0
  1  2  1  0
  1  3  1  0
  2  7  1  0
  2 14  1  0
  2 15  1  0
  3  4  1  0
  3 16  1  0
  3 17  1  0
  4  5  1  0
  4 30  1  0
  4 31  1  0
  5  8  1  0
  5 18  1  0
  5 19  1  0
  6  7  1  0
  6  9  1  0
  6 32  1  0
  6 33  1  0
  7 22  1  0
  7 23  1  0
  8 10  1  0
  8 20  1  0
  8 21  1  0
  9 11  1  0
  9 36  1  0
  9 37  1  0
 10 12  1  0
 10 34  1  0
 10 35  1  0
 11 13  1  0
 11 28  1  0
 11 29  1  0
 12 13  1  0
 12 24  1  0
 12 25  1  0
 13 26  1  0
 13 27  1  0
M  CHG  1   1   1
M  RAD  1   1   2
M  END
$$$$
