
     RDKit          3D

 37 37  0  0  0  0  0  0  0  0999 V2000
    0.5715    0.4021   -2.6634 S   0  0  0  0  0  2  0  0  0  0  0  0
    2.3989   -0.3554   -3.4074 Si  0  0  0  0  0  4  0  0  0  0  0  0
    0.0031    2.2723   -3.5457 Si  0  0  0  0  0  4  0  0  0  0  0  0
    1.7127    3.4020   -4.3490 Si  0  0  0  0  0  4  0  0  0  0  0  0
    2.2064    3.0734   -6.4353 Si  0  0  0  0  0  4  0  0  0  0  0  0
    3.0918   -3.4804   -5.2446 Si  0  0  0  0  0  4  0  0  0  0  0  0
    2.3323   -2.5852   -3.3229 Si  0  0  0  0  0  4  0  0  0  0  0  0
    0.8219    1.8089   -7.5917 Si  0  0  0  0  0  4  0  0  0  0  0  0
    1.3539   -4.2295   -6.4721 Si  0  0  0  0  0  4  0  0  0  0  0  0
    1.9868    0.3733   -8.8434 Si  0  0  0  0  0  4  0  0  0  0  0  0
   -0.3309   -2.8070   -6.3606 Si  0  0  0  0  0  4  0  0  0  0  0  0
    0.8172   -1.3256   -9.5535 Si  0  0  0  0  0  4  0  0  0  0  0  0
   -0.8747   -1.9006   -8.2905 Si  0  0  0  0  0  4  0  0  0  0  0  0
    2.6630    0.1996   -4.9548 F   0  0  0  0  0  0  0  0  0  0  0  0
    3.7000    0.1807   -2.4495 F   0  0  0  0  0  0  0  0  0  0  0  0
   -1.2586    2.0963   -4.6401 F   0  0  0  0  0  0  0  0  0  0  0  0
   -0.6591    3.1816   -2.2534 F   0  0  0  0  0  0  0  0  0  0  0  0
    2.3030    4.5761   -7.2519 F   0  0  0  0  0  0  0  0  0  0  0  0
    3.7947    2.4523   -6.5760 F   0  0  0  0  0  0  0  0  0  0  0  0
   -0.2402    0.9278   -6.6609 F   0  0  0  0  0  0  0  0  0  0  0  0
   -0.1198    2.7380   -8.6747 F   0  0  0  0  0  0  0  0  0  0  0  0
    0.7520   -3.1324   -3.1171 F   0  0  0  0  0  0  0  0  0  0  0  0
    3.2355   -3.1163   -2.0110 F   0  0  0  0  0  0  0  0  0  0  0  0
    0.2251   -0.9730  -11.1123 F   0  0  0  0  0  0  0  0  0  0  0  0
    1.8567   -2.6613   -9.7635 F   0  0  0  0  0  0  0  0  0  0  0  0
   -1.8305   -3.0260   -9.1491 F   0  0  0  0  0  0  0  0  0  0  0  0
   -1.8623   -0.5641   -8.0021 F   0  0  0  0  0  0  0  0  0  0  0  0
    0.0131   -1.6614   -5.1735 F   0  0  0  0  0  0  0  0  0  0  0  0
   -1.6951   -3.6630   -5.7874 F   0  0  0  0  0  0  0  0  0  0  0  0
    1.4233    5.0646   -4.0672 F   0  0  0  0  0  0  0  0  0  0  0  0
    3.0605    3.0387   -3.3587 F   0  0  0  0  0  0  0  0  0  0  0  0
    3.9936   -2.3613   -6.0808 F   0  0  0  0  0  0  0  0  0  0  0  0
    4.0098   -4.8287   -4.8092 F   0  0  0  0  0  0  0  0  0  0  0  0
    2.5648    1.2523  -10.1877 F   0  0  0  0  0  0  0  0  0  0  0  0
    3.3470   -0.1526   -8.0032 F   0  0  0  0  0  0  0  0  0  0  0  0
    0.9369   -5.7446   -5.8040 F   0  0  0  0  0  0  0  0  0  0  0  0
    1.8969   -4.5138   -8.0185 F   0  0  0  0  0  0  0  0  0  0  0  0
  1  2  1  0
  1  3  1  0
  2  7  1  0
  2 14  1  0
  2 15  1  0
  3  4  1  0
  3 16  1  0
  3 17  1  0
  4  5  1  0
  4 30  1  0
  4 31  1  0
  5  8  1  0
  5 18  1  0
  5 19  1  0
  6  7  1  0
  6  9  1  0
  6 32  1  0
  6 33  1  0
  7 22  1  0
  7 23  1  0
  8 10  1  0
  8 20  1  0
  8 21  1  0
  9 11  1  0
  9 36  1  0
  9 37  1  0
 10 12  1  0
 10 34  1  0
 10 35  1  0
 11 13  1  0
 11 28  1  0
 11 29  1  0
 12 13  1  0
 12 24  1  0
 12 25  1  0
 13 26  1  0
 13 27  1  0
M  CHG  1   1   1
M  RAD  1   1   2
M  END
$$$$

     RDKit          3D

 37 37  0  0  0  0  0  0  0  0999 V2000
    0.5715    0.4021   -2.6634 S   0  0  0  0  0  2  0  0  0  0  0  0
    1.8700   -1.0914   -3.5318 Si  0  0  0  0  0  4  0  0  0  0  0  0
    1.0483    2.3529   -3.3564 Si  0  0  0  0  0  4  0  0  0  0  0  0
   -0.6407    3.2812   -4.4868 Si  0  0  0  0  0  4  0  0  0  0  0  0
    0.0770    4.8773   -5.8574 Si  0  0  0  0  0  4  0  0  0  0  0  0
    3.0950   -1.9951   -6.8913 Si  0  0  0  0  0  4  0  0  0  0  0  0
    2.5337   -0.3304   -5.5145 Si  0  0  0  0  0  4  0  0  0  0  0  0
    1.2625    4.0553   -7.5516 Si  0  0  0  0  0  4  0  0  0  0  0  0
    4.5951   -1.2409   -8.3156 Si  0  0  0  0  0  4  0  0  0  0  0  0
   -0.0482    2.8366   -8.8816 Si  0  0  0  0  0  4  0  0  0  0  0  0
    3.7710   -0.5338  -10.2238 Si  0  0  0  0  0  4  0  0  0  0  0  0
    1.1221    1.9965  -10.5695 Si  0  0  0  0  0  4  0  0  0  0  0  0
    1.6026   -0.1791  -10.2179 Si  0  0  0  0  0  4  0  0  0  0  0  0
    0.9961   -2.5143   -3.7869 F   0  0  0  0  0  0  0  0  0  0  0  0
    3.2126   -1.3516   -2.5630 F   0  0  0  0  0  0  0  0  0  0  0  0
    2.4043    2.3887   -4.3307 F   0  0  0  0  0  0  0  0  0  0  0  0
    1.3824    3.3258   -1.9960 F   0  0  0  0  0  0  0  0  0  0  0  0
   -1.2708    5.6611   -6.4966 F   0  0  0  0  0  0  0  0  0  0  0  0
    0.9550    5.9936   -4.9790 F   0  0  0  0  0  0  0  0  0  0  0  0
    2.6061    3.1983   -7.0368 F   0  0  0  0  0  0  0  0  0  0  0  0
    1.8234    5.3639   -8.4613 F   0  0  0  0  0  0  0  0  0  0  0  0
    1.3123    0.6208   -6.1243 F   0  0  0  0  0  0  0  0  0  0  0  0
    3.9511    0.5831   -5.2524 F   0  0  0  0  0  0  0  0  0  0  0  0
    0.2430    2.1745  -11.9979 F   0  0  0  0  0  0  0  0  0  0  0  0
    2.5729    2.8392  -10.7744 F   0  0  0  0  0  0  0  0  0  0  0  0
    0.8389   -0.6311   -8.8091 F   0  0  0  0  0  0  0  0  0  0  0  0
    0.8976   -1.0807  -11.4850 F   0  0  0  0  0  0  0  0  0  0  0  0
    4.5380    0.9290  -10.6602 F   0  0  0  0  0  0  0  0  0  0  0  0
    4.2091   -1.6455  -11.4438 F   0  0  0  0  0  0  0  0  0  0  0  0
   -1.5138    2.0980   -5.2933 F   0  0  0  0  0  0  0  0  0  0  0  0
   -1.6710    3.9989   -3.3579 F   0  0  0  0  0  0  0  0  0  0  0  0
    1.7639   -2.6903   -7.6232 F   0  0  0  0  0  0  0  0  0  0  0  0
    3.8157   -3.2075   -5.9282 F   0  0  0  0  0  0  0  0  0  0  0  0
   -0.8498    1.6266   -8.0174 F   0  0  0  0  0  0  0  0  0  0  0  0
   -1.2443    3.8629   -9.4939 F   0  0  0  0  0  0  0  0  0  0  0  0
    5.4526    0.0262   -7.5561 F   0  0  0  0  0  0  0  0  0  0  0  0
    5.7498   -2.4717   -8.5748 F   0  0  0  0  0  0  0  0  0  0  0  0
  1  2  1  0
  1  3  1  0
  2  7  1  0
  2 14  1  0
  2 15  1  0
  3  4  1  0
  3 16  1  0
  3 17  1  0
  4  5  1  0
  4 30  1  0
  4 31  1  0
  5  8  1  0
  5 18  1  0
  5 19  1  0
  6  7  1  0
  6  9  1  0
  6 32  1  0
  6 33  1  0
  7 22  1  0
  7 23  1  0
  8 10  1  0
  8 20  1  0
  8 21  1  0
  9 11  1  0
  9 36  1  0
  9 37  1  0
 10 12  1  0
 10 34  1  0
 10 35  1  0
 11 13  1  0
 11 28  1  0
 11 29  1  0
 12 13  1  0
 12 24  1  0
 12 25  1  0
 13 26  1  0
 13 27  1  0
M  CHG  1   1   1
M  RAD  1   1   2
M  END
$$$$

     RDKit          3D

 37 37  0  0  0  0  0  0  0  0999 V2000
    0.5715    0.4021   -2.6634 S   0  0  0  0  0  2  0  0  0  0  0  0
   -0.1523    1.8672   -4.0201 Si  0  0  0  0  0  4  0  0  0  0  0  0
    0.2189   -1.6130   -3.3851 Si  0  0  0  0  0  4  0  0  0  0  0  0
    0.9225   -1.5802   -5.5296 Si  0  0  0  0  0  4  0  0  0  0  0  0
    0.3360   -3.3743   -6.6378 Si  0  0  0  0  0  4  0  0  0  0  0  0
    0.8177    3.9901   -6.8839 Si  0  0  0  0  0  4  0  0  0  0  0  0
    1.5077    2.7238   -5.2319 Si  0  0  0  0  0  4  0  0  0  0  0  0
   -1.3058   -3.0581   -8.0768 Si  0  0  0  0  0  4  0  0  0  0  0  0
   -1.2652    3.6979   -7.4776 Si  0  0  0  0  0  4  0  0  0  0  0  0
   -0.7017   -2.2010   -9.9958 Si  0  0  0  0  0  4  0  0  0  0  0  0
   -1.7184    1.9916   -8.7677 Si  0  0  0  0  0  4  0  0  0  0  0  0
    0.7229   -0.5505   -9.9429 Si  0  0  0  0  0  4  0  0  0  0  0  0
   -0.2052    1.4578  -10.2373 Si  0  0  0  0  0  4  0  0  0  0  0  0
   -1.4288    1.3348   -4.9574 F   0  0  0  0  0  0  0  0  0  0  0  0
   -0.7604    3.1571   -3.0742 F   0  0  0  0  0  0  0  0  0  0  0  0
    1.1452   -2.6563   -2.4636 F   0  0  0  0  0  0  0  0  0  0  0  0
   -1.4276   -1.9707   -3.3104 F   0  0  0  0  0  0  0  0  0  0  0  0
   -0.1882   -4.5554   -5.5195 F   0  0  0  0  0  0  0  0  0  0  0  0
    1.6338   -4.0825   -7.4734 F   0  0  0  0  0  0  0  0  0  0  0  0
   -2.6138   -2.2380   -7.3528 F   0  0  0  0  0  0  0  0  0  0  0  0
   -1.9376   -4.6167   -8.4121 F   0  0  0  0  0  0  0  0  0  0  0  0
    2.5300    1.5349   -5.8387 F   0  0  0  0  0  0  0  0  0  0  0  0
    2.4603    3.6592   -4.1736 F   0  0  0  0  0  0  0  0  0  0  0  0
    1.7924   -0.5800   -8.6571 F   0  0  0  0  0  0  0  0  0  0  0  0
    1.7306   -0.7189  -11.3261 F   0  0  0  0  0  0  0  0  0  0  0  0
    1.0537    2.5942  -10.2350 F   0  0  0  0  0  0  0  0  0  0  0  0
   -0.8120    1.4705  -11.8370 F   0  0  0  0  0  0  0  0  0  0  0  0
   -3.1610    2.3738   -9.6230 F   0  0  0  0  0  0  0  0  0  0  0  0
   -2.1975    0.6912   -7.7847 F   0  0  0  0  0  0  0  0  0  0  0  0
    2.5811   -1.4415   -5.4976 F   0  0  0  0  0  0  0  0  0  0  0  0
    0.1490   -0.2412   -6.1845 F   0  0  0  0  0  0  0  0  0  0  0  0
    1.9057    3.8269   -8.1841 F   0  0  0  0  0  0  0  0  0  0  0  0
    0.9781    5.6304   -6.4107 F   0  0  0  0  0  0  0  0  0  0  0  0
   -0.1098   -3.4781  -10.9675 F   0  0  0  0  0  0  0  0  0  0  0  0
   -2.1139   -1.6680  -10.8003 F   0  0  0  0  0  0  0  0  0  0  0  0
   -1.8103    5.1232   -8.2471 F   0  0  0  0  0  0  0  0  0  0  0  0
   -2.2041    3.5723   -6.0581 F   0  0  0  0  0  0  0  0  0  0  0  0
  1  2  1  0
  1  3  1  0
  2  7  1  0
  2 14  1  0
  2 15  1  0
  3  4  1  0
  3 16  1  0
  3 17  1  0
  4  5  1  0
  4 30  1  0
  4 31  1  0
  5  8  1  0
  5 18  1  0
  5 19  1  0
  6  7  1  0
  6  9  1  0
  6 32  1  0
  6 33  1  0
  7 22  1  0
  7 23  1  0
  8 10  1  0
  8 20  1  0
  8 21  1  0
  9 11  1  0
  9 36  1  0
  9 37  1  0
 10 12  1  0
 10 34  1  0
 10 35  1  0
 11 13  1  0
 11 28  1  0
 11 29  1  0
 12 13  1  0
 12 24  1  0
 12 25  1  0
 13 26  1  0
 13 27  1  0
M  CHG  1   1   1
M  RAD  1   1   2
M  END
$$$$
