
     RDKit          3D

 37 37  0  0  0  0  0  0  0  0999 V2000
   -2.6057   -0.7814   -2.9126 S   0  0  0  0  0  2  0  0  0  0  0  0
   -3.9646    0.9118   -2.9695 Si  0  0  0  0  0  4  0  0  0  0  0  0
   -3.5741   -2.5387   -2.2708 Si  0  0  0  0  0  4  0  0  0  0  0  0
   -3.6611   -4.1505   -3.7346 Si  0  0  0  0  0  4  0  0  0  0  0  0
   -1.9802   -4.2865   -5.1270 Si  0  0  0  0  0  4  0  0  0  0  0  0
   -5.8053    1.9840   -5.9915 Si  0  0  0  0  0  4  0  0  0  0  0  0
   -5.5976    0.5070   -4.3910 Si  0  0  0  0  0  4  0  0  0  0  0  0
   -1.0541   -2.3722   -5.6726 Si  0  0  0  0  0  4  0  0  0  0  0  0
   -3.9244    2.6930   -6.8680 Si  0  0  0  0  0  4  0  0  0  0  0  0
   -0.2602   -2.5521   -7.7783 Si  0  0  0  0  0  4  0  0  0  0  0  0
   -2.9278    1.1958   -8.1588 Si  0  0  0  0  0  4  0  0  0  0  0  0
    0.2882   -0.5580   -8.5823 Si  0  0  0  0  0  4  0  0  0  0  0  0
   -0.7669    1.0857   -7.5408 Si  0  0  0  0  0  4  0  0  0  0  0  0
   -4.5461    1.0756   -1.3716 F   0  0  0  0  0  0  0  0  0  0  0  0
   -3.0932    2.2903   -3.3159 F   0  0  0  0  0  0  0  0  0  0  0  0
   -2.8045   -3.1015   -0.8595 F   0  0  0  0  0  0  0  0  0  0  0  0
   -5.1628   -2.1335   -1.7965 F   0  0  0  0  0  0  0  0  0  0  0  0
   -0.7676   -5.3165   -4.5084 F   0  0  0  0  0  0  0  0  0  0  0  0
   -2.5319   -5.0423   -6.5551 F   0  0  0  0  0  0  0  0  0  0  0  0
   -2.0968   -1.0790   -5.6562 F   0  0  0  0  0  0  0  0  0  0  0  0
    0.3092   -2.0747   -4.6900 F   0  0  0  0  0  0  0  0  0  0  0  0
   -5.4233   -1.0621   -5.0372 F   0  0  0  0  0  0  0  0  0  0  0  0
   -7.0632    0.4734   -3.5139 F   0  0  0  0  0  0  0  0  0  0  0  0
    1.9486   -0.3452   -8.3726 F   0  0  0  0  0  0  0  0  0  0  0  0
   -0.0460   -0.4572  -10.2311 F   0  0  0  0  0  0  0  0  0  0  0  0
   -0.0597    2.5561   -8.0434 F   0  0  0  0  0  0  0  0  0  0  0  0
   -0.6160    1.0113   -5.8823 F   0  0  0  0  0  0  0  0  0  0  0  0
   -3.6559   -0.3096   -8.1011 F   0  0  0  0  0  0  0  0  0  0  0  0
   -2.9195    1.6789   -9.7955 F   0  0  0  0  0  0  0  0  0  0  0  0
   -3.7775   -5.6387   -2.9040 F   0  0  0  0  0  0  0  0  0  0  0  0
   -5.1085   -4.0204   -4.6292 F   0  0  0  0  0  0  0  0  0  0  0  0
   -6.7808    1.3247   -7.2236 F   0  0  0  0  0  0  0  0  0  0  0  0
   -6.6645    3.3338   -5.4024 F   0  0  0  0  0  0  0  0  0  0  0  0
   -1.5544   -3.1527   -8.7120 F   0  0  0  0  0  0  0  0  0  0  0  0
    1.0249   -3.6316   -7.7981 F   0  0  0  0  0  0  0  0  0  0  0  0
   -2.8877    3.2727   -5.6600 F   0  0  0  0  0  0  0  0  0  0  0  0
   -4.2895    4.0471   -7.8456 F   0  0  0  0  0  0  0  0  0  0  0  0
  1  2  1  0
  1  3  1  0
  2  7  1  0
  2 14  1  0
  2 15  1  0
  3  4  1  0
  3 16  1  0
  3 17  1  0
  4  5  1  0
  4 30  1  0
  4 31  1  0
  5  8  1  0
  5 18  1  0
  5 19  1  0
  6  7  1  0
  6  9  1  0
  6 32  1  0
  6 33  1  0
  7 22  1  0
  7 23  1  0
  8 10  1  0
  8 20  1  0
  8 21  1  0
  9 11  1  0
  9 36  1  0
  9 37  1  0
 10 12  1  0
 10 34  1  0
 10 35  1  0
 11 13  1  0
 11 28  1  0
 11 29  1  0
 12 13  1  0
 12 24  1  0
 12 25  1  0
 13 26  1  0
 13 27  1  0
M  CHG  1   1   1
M  RAD  1   1   2
M  END
$$$$

     RDKit          3D

 37 37  0  0  0  0  0  0  0  0999 V2000
   -2.6057   -0.7814   -2.9126 S   0  0  0  0  0  2  0  0  0  0  0  0
   -4.1664   -2.2171   -2.6837 Si  0  0  0  0  0  4  0  0  0  0  0  0
   -2.9054    0.3874   -4.7204 Si  0  0  0  0  0  4  0  0  0  0  0  0
   -2.4098   -1.0090   -6.4224 Si  0  0  0  0  0  4  0  0  0  0  0  0
   -3.2021   -0.3326   -8.3406 Si  0  0  0  0  0  4  0  0  0  0  0  0
   -4.9725   -5.5571   -4.0086 Si  0  0  0  0  0  4  0  0  0  0  0  0
   -3.4281   -4.3238   -3.0062 Si  0  0  0  0  0  4  0  0  0  0  0  0
   -4.0554   -1.8706   -9.6369 Si  0  0  0  0  0  4  0  0  0  0  0  0
   -4.1956   -6.9341   -5.5411 Si  0  0  0  0  0  4  0  0  0  0  0  0
   -4.1774   -3.9105   -8.7721 Si  0  0  0  0  0  4  0  0  0  0  0  0
   -2.0281   -6.9370   -5.7854 Si  0  0  0  0  0  4  0  0  0  0  0  0
   -2.3560   -5.0866   -8.9975 Si  0  0  0  0  0  4  0  0  0  0  0  0
   -1.1787   -5.5163   -7.2042 Si  0  0  0  0  0  4  0  0  0  0  0  0
   -5.4080   -1.8687   -3.7746 F   0  0  0  0  0  0  0  0  0  0  0  0
   -4.8023   -2.0435   -1.1300 F   0  0  0  0  0  0  0  0  0  0  0  0
   -1.8138    1.6648   -4.7083 F   0  0  0  0  0  0  0  0  0  0  0  0
   -4.4912    0.9159   -4.8303 F   0  0  0  0  0  0  0  0  0  0  0  0
   -1.9330    0.4340   -9.1976 F   0  0  0  0  0  0  0  0  0  0  0  0
   -4.3238    0.9225   -8.0385 F   0  0  0  0  0  0  0  0  0  0  0  0
   -3.2427   -1.9859  -11.1349 F   0  0  0  0  0  0  0  0  0  0  0  0
   -5.6513   -1.4089  -10.0392 F   0  0  0  0  0  0  0  0  0  0  0  0
   -3.0989   -4.9326   -1.4417 F   0  0  0  0  0  0  0  0  0  0  0  0
   -1.9833   -4.2559   -3.8108 F   0  0  0  0  0  0  0  0  0  0  0  0
   -1.3288   -4.2553  -10.0895 F   0  0  0  0  0  0  0  0  0  0  0  0
   -2.6570   -6.5851   -9.7688 F   0  0  0  0  0  0  0  0  0  0  0  0
    0.2835   -6.2151   -7.7987 F   0  0  0  0  0  0  0  0  0  0  0  0
   -0.5758   -4.1049   -6.4516 F   0  0  0  0  0  0  0  0  0  0  0  0
   -1.3106   -6.6724   -4.2557 F   0  0  0  0  0  0  0  0  0  0  0  0
   -1.5368   -8.5219   -6.2116 F   0  0  0  0  0  0  0  0  0  0  0  0
   -3.0271   -2.4775   -5.9761 F   0  0  0  0  0  0  0  0  0  0  0  0
   -0.7116   -1.1158   -6.4471 F   0  0  0  0  0  0  0  0  0  0  0  0
   -5.8232   -6.3728   -2.7658 F   0  0  0  0  0  0  0  0  0  0  0  0
   -6.1326   -4.4799   -4.6567 F   0  0  0  0  0  0  0  0  0  0  0  0
   -4.7810   -3.7802   -7.2329 F   0  0  0  0  0  0  0  0  0  0  0  0
   -5.4119   -4.7019   -9.6693 F   0  0  0  0  0  0  0  0  0  0  0  0
   -4.6704   -8.5146   -5.0605 F   0  0  0  0  0  0  0  0  0  0  0  0
   -5.0016   -6.7531   -7.0381 F   0  0  0  0  0  0  0  0  0  0  0  0
  1  2  1  0
  1  3  1  0
  2  7  1  0
  2 14  1  0
  2 15  1  0
  3  4  1  0
  3 16  1  0
  3 17  1  0
  4  5  1  0
  4 30  1  0
  4 31  1  0
  5  8  1  0
  5 18  1  0
  5 19  1  0
  6  7  1  0
  6  9  1  0
  6 32  1  0
  6 33  1  0
  7 22  1  0
  7 23  1  0
  8 10  1  0
  8 20  1  0
  8 21  1  0
  9 11  1  0
  9 36  1  0
  9 37  1  0
 10 12  1  0
 10 34  1  0
 10 35  1  0
 11 13  1  0
 11 28  1  0
 11 29  1  0
 12 13  1  0
 12 24  1  0
 12 25  1  0
 13 26  1  0
 13 27  1  0
M  CHG  1   1   1
M  RAD  1   1   2
M  END
$$$$

     RDKit          3D

 37 37  0  0  0  0  0  0  0  0999 V2000
   -2.6057   -0.7814   -2.9126 S   0  0  0  0  0  2  0  0  0  0  0  0
   -3.8134    1.0142   -3.0975 Si  0  0  0  0  0  4  0  0  0  0  0  0
   -3.7304   -2.4076   -2.1857 Si  0  0  0  0  0  4  0  0  0  0  0  0
   -3.9343   -4.0930   -3.5517 Si  0  0  0  0  0  4  0  0  0  0  0  0
   -2.2513   -4.4562   -4.9003 Si  0  0  0  0  0  4  0  0  0  0  0  0
   -5.5116    2.0510   -6.2137 Si  0  0  0  0  0  4  0  0  0  0  0  0
   -5.4544    0.6628   -4.5238 Si  0  0  0  0  0  4  0  0  0  0  0  0
   -1.1568   -2.6643   -5.5414 Si  0  0  0  0  0  4  0  0  0  0  0  0
   -3.5643    2.5429   -7.0942 Si  0  0  0  0  0  4  0  0  0  0  0  0
   -0.3509   -3.0398   -7.6166 Si  0  0  0  0  0  4  0  0  0  0  0  0
   -2.6814    0.8903   -8.2731 Si  0  0  0  0  0  4  0  0  0  0  0  0
    0.3780   -1.1526   -8.5278 Si  0  0  0  0  0  4  0  0  0  0  0  0
   -0.5471    0.6356   -7.6074 Si  0  0  0  0  0  4  0  0  0  0  0  0
   -4.4016    1.3245   -1.5240 F   0  0  0  0  0  0  0  0  0  0  0  0
   -2.8220    2.2900   -3.5087 F   0  0  0  0  0  0  0  0  0  0  0  0
   -3.0324   -2.9459   -0.7285 F   0  0  0  0  0  0  0  0  0  0  0  0
   -5.2851   -1.8408   -1.7678 F   0  0  0  0  0  0  0  0  0  0  0  0
   -1.1407   -5.5454   -4.1974 F   0  0  0  0  0  0  0  0  0  0  0  0
   -2.8453   -5.2487   -6.2911 F   0  0  0  0  0  0  0  0  0  0  0  0
   -2.0848   -1.2889   -5.6229 F   0  0  0  0  0  0  0  0  0  0  0  0
    0.2128   -2.4237   -4.5519 F   0  0  0  0  0  0  0  0  0  0  0  0
   -5.4062   -0.9522   -5.0714 F   0  0  0  0  0  0  0  0  0  0  0  0
   -6.9300    0.8074   -3.6753 F   0  0  0  0  0  0  0  0  0  0  0  0
    2.0474   -1.0687   -8.2986 F   0  0  0  0  0  0  0  0  0  0  0  0
    0.0775   -1.1251  -10.1858 F   0  0  0  0  0  0  0  0  0  0  0  0
    0.2909    2.0071   -8.1834 F   0  0  0  0  0  0  0  0  0  0  0  0
   -0.4270    0.6505   -5.9448 F   0  0  0  0  0  0  0  0  0  0  0  0
   -3.5367   -0.5416   -8.1396 F   0  0  0  0  0  0  0  0  0  0  0  0
   -2.6081    1.2695   -9.9354 F   0  0  0  0  0  0  0  0  0  0  0  0
   -4.1899   -5.5122   -2.6359 F   0  0  0  0  0  0  0  0  0  0  0  0
   -5.3521   -3.8959   -4.4807 F   0  0  0  0  0  0  0  0  0  0  0  0
   -6.5222    1.4024   -7.4230 F   0  0  0  0  0  0  0  0  0  0  0  0
   -6.2602    3.5023   -5.7236 F   0  0  0  0  0  0  0  0  0  0  0  0
   -1.6783   -3.5848   -8.5378 F   0  0  0  0  0  0  0  0  0  0  0  0
    0.8370   -4.2236   -7.5464 F   0  0  0  0  0  0  0  0  0  0  0  0
   -2.4993    3.1057   -5.9031 F   0  0  0  0  0  0  0  0  0  0  0  0
   -3.7979    3.8605   -8.1581 F   0  0  0  0  0  0  0  0  0  0  0  0
  1  2  1  0
  1  3  1  0
  2  7  1  0
  2 14  1  0
  2 15  1  0
  3  4  1  0
  3 16  1  0
  3 17  1  0
  4  5  1  0
  4 30  1  0
  4 31  1  0
  5  8  1  0
  5 18  1  0
  5 19  1  0
  6  7  1  0
  6  9  1  0
  6 32  1  0
  6 33  1  0
  7 22  1  0
  7 23  1  0
  8 10  1  0
  8 20  1  0
  8 21  1  0
  9 11  1  0
  9 36  1  0
  9 37  1  0
 10 12  1  0
 10 34  1  0
 10 35  1  0
 11 13  1  0
 11 28  1  0
 11 29  1  0
 12 13  1  0
 12 24  1  0
 12 25  1  0
 13 26  1  0
 13 27  1  0
M  CHG  1   1   1
M  RAD  1   1   2
M  END
$$$$

     RDKit          3D

 37 37  0  0  0  0  0  0  0  0999 V2000
   -2.6057   -0.7814   -2.9126 S   0  0  0  0  0  2  0  0  0  0  0  0
   -4.3430    0.2228   -2.1586 Si  0  0  0  0  0  4  0  0  0  0  0  0
   -3.0857   -2.6181   -3.8680 Si  0  0  0  0  0  4  0  0  0  0  0  0
   -2.0203   -2.8331   -5.8272 Si  0  0  0  0  0  4  0  0  0  0  0  0
   -1.0656   -0.8532   -6.2996 Si  0  0  0  0  0  4  0  0  0  0  0  0
   -6.5575    1.0976   -4.8703 Si  0  0  0  0  0  4  0  0  0  0  0  0
   -4.9592    1.8695   -3.5756 Si  0  0  0  0  0  4  0  0  0  0  0  0
   -0.2798   -0.8496   -8.3950 Si  0  0  0  0  0  4  0  0  0  0  0  0
   -6.7676    2.1423   -6.7921 Si  0  0  0  0  0  4  0  0  0  0  0  0
   -0.7158    1.1279   -9.2899 Si  0  0  0  0  0  4  0  0  0  0  0  0
   -4.8734    2.4960   -7.8554 Si  0  0  0  0  0  4  0  0  0  0  0  0
   -2.6232    1.1401  -10.4233 Si  0  0  0  0  0  4  0  0  0  0  0  0
   -4.3725    0.7117   -9.1255 Si  0  0  0  0  0  4  0  0  0  0  0  0
   -5.6205   -0.8592   -1.9312 F   0  0  0  0  0  0  0  0  0  0  0  0
   -3.9374    0.9708   -0.7017 F   0  0  0  0  0  0  0  0  0  0  0  0
   -2.5427   -3.8826   -2.8639 F   0  0  0  0  0  0  0  0  0  0  0  0
   -4.7478   -2.8381   -4.0533 F   0  0  0  0  0  0  0  0  0  0  0  0
    0.1625   -0.5606   -5.1852 F   0  0  0  0  0  0  0  0  0  0  0  0
   -2.2342    0.3240   -6.1414 F   0  0  0  0  0  0  0  0  0  0  0  0
   -0.8759   -2.1202   -9.2856 F   0  0  0  0  0  0  0  0  0  0  0  0
    1.4076   -1.0211   -8.3053 F   0  0  0  0  0  0  0  0  0  0  0  0
   -5.5330    3.1898   -2.6597 F   0  0  0  0  0  0  0  0  0  0  0  0
   -3.5879    2.3445   -4.3838 F   0  0  0  0  0  0  0  0  0  0  0  0
   -2.5242    0.0143  -11.6507 F   0  0  0  0  0  0  0  0  0  0  0  0
   -2.8193    2.6625  -11.1194 F   0  0  0  0  0  0  0  0  0  0  0  0
   -5.7165    0.4574  -10.1421 F   0  0  0  0  0  0  0  0  0  0  0  0
   -4.1747   -0.6654   -8.2109 F   0  0  0  0  0  0  0  0  0  0  0  0
   -5.1230    3.7915   -8.9409 F   0  0  0  0  0  0  0  0  0  0  0  0
   -3.6046    2.9162   -6.8687 F   0  0  0  0  0  0  0  0  0  0  0  0
   -3.0545   -3.2896   -7.0513 F   0  0  0  0  0  0  0  0  0  0  0  0
   -0.7807   -3.9673   -5.7276 F   0  0  0  0  0  0  0  0  0  0  0  0
   -8.0318    1.2628   -4.0255 F   0  0  0  0  0  0  0  0  0  0  0  0
   -6.3652   -0.5615   -5.1492 F   0  0  0  0  0  0  0  0  0  0  0  0
    0.5279    1.5361  -10.3481 F   0  0  0  0  0  0  0  0  0  0  0  0
   -0.7573    2.2912   -8.0537 F   0  0  0  0  0  0  0  0  0  0  0  0
   -7.7796    1.2198   -7.7990 F   0  0  0  0  0  0  0  0  0  0  0  0
   -7.5634    3.6191   -6.5477 F   0  0  0  0  0  0  0  0  0  0  0  0
  1  2  1  0
  1  3  1  0
  2  7  1  0
  2 14  1  0
  2 15  1  0
  3  4  1  0
  3 16  1  0
  3 17  1  0
  4  5  1  0
  4 30  1  0
  4 31  1  0
  5  8  1  0
  5 18  1  0
  5 19  1  0
  6  7  1  0
  6  9  1  0
  6 32  1  0
  6 33  1  0
  7 22  1  0
  7 23  1  0
  8 10  1  0
  8 20  1  0
  8 21  1  0
  9 11  1  0
  9 36  1  0
  9 37  1  0
 10 12  1  0
 10 34  1  0
 10 35  1  0
 11 13  1  0
 11 28  1  0
 11 29  1  0
 12 13  1  0
 12 24  1  0
 12 25  1  0
 13 26  1  0
 13 27  1  0
M  CHG  1   1   1
M  RAD  1   1   2
M  END
$$$$

     RDKit          3D

 37 37  0  0  0  0  0  0  0  0999 V2000
   -2.6057   -0.7814   -2.9126 S   0  0  0  0  0  2  0  0  0  0  0  0
   -4.2870   -2.0629   -2.6287 Si  0  0  0  0  0  4  0  0  0  0  0  0
   -2.7779    0.2954   -4.7927 Si  0  0  0  0  0  4  0  0  0  0  0  0
   -2.3795   -1.2398   -6.3979 Si  0  0  0  0  0  4  0  0  0  0  0  0
   -3.0832   -0.6177   -8.3684 Si  0  0  0  0  0  4  0  0  0  0  0  0
   -5.3574   -5.3975   -3.7666 Si  0  0  0  0  0  4  0  0  0  0  0  0
   -3.7275   -4.2404   -2.8099 Si  0  0  0  0  0  4  0  0  0  0  0  0
   -4.0465   -2.1545   -9.5866 Si  0  0  0  0  0  4  0  0  0  0  0  0
   -4.6796   -6.9269   -5.1983 Si  0  0  0  0  0  4  0  0  0  0  0  0
   -4.3555   -4.1198   -8.6037 Si  0  0  0  0  0  4  0  0  0  0  0  0
   -2.5170   -7.1285   -5.3995 Si  0  0  0  0  0  4  0  0  0  0  0  0
   -2.6386   -5.4576   -8.7225 Si  0  0  0  0  0  4  0  0  0  0  0  0
   -1.5285   -5.8747   -6.8840 Si  0  0  0  0  0  4  0  0  0  0  0  0
   -5.4783   -1.6781   -3.7626 F   0  0  0  0  0  0  0  0  0  0  0  0
   -4.9279   -1.7410   -1.1009 F   0  0  0  0  0  0  0  0  0  0  0  0
   -1.5811    1.4740   -4.8358 F   0  0  0  0  0  0  0  0  0  0  0  0
   -4.3108    0.9487   -4.9652 F   0  0  0  0  0  0  0  0  0  0  0  0
   -1.7407   -0.0155   -9.2448 F   0  0  0  0  0  0  0  0  0  0  0  0
   -4.0972    0.7442   -8.1641 F   0  0  0  0  0  0  0  0  0  0  0  0
   -3.2252   -2.4300  -11.0588 F   0  0  0  0  0  0  0  0  0  0  0  0
   -5.5909   -1.5848  -10.0470 F   0  0  0  0  0  0  0  0  0  0  0  0
   -3.4743   -4.7777   -1.2055 F   0  0  0  0  0  0  0  0  0  0  0  0
   -2.2708   -4.3447   -3.5886 F   0  0  0  0  0  0  0  0  0  0  0  0
   -1.5283   -4.7849   -9.8420 F   0  0  0  0  0  0  0  0  0  0  0  0
   -3.0560   -6.9698   -9.4083 F   0  0  0  0  0  0  0  0  0  0  0  0
   -0.1232   -6.7301   -7.4068 F   0  0  0  0  0  0  0  0  0  0  0  0
   -0.8176   -4.4759   -6.2056 F   0  0  0  0  0  0  0  0  0  0  0  0
   -1.8016   -6.8323   -3.8746 F   0  0  0  0  0  0  0  0  0  0  0  0
   -2.1575   -8.7725   -5.7202 F   0  0  0  0  0  0  0  0  0  0  0  0
   -3.1269   -2.6205   -5.8766 F   0  0  0  0  0  0  0  0  0  0  0  0
   -0.6966   -1.4914   -6.3830 F   0  0  0  0  0  0  0  0  0  0  0  0
   -6.2928   -6.0603   -2.4940 F   0  0  0  0  0  0  0  0  0  0  0  0
   -6.4114   -4.2677   -4.5006 F   0  0  0  0  0  0  0  0  0  0  0  0
   -4.9678   -3.8445   -7.0872 F   0  0  0  0  0  0  0  0  0  0  0  0
   -5.6403   -4.8573   -9.4759 F   0  0  0  0  0  0  0  0  0  0  0  0
   -5.2951   -8.4290   -4.6332 F   0  0  0  0  0  0  0  0  0  0  0  0
   -5.4455   -6.7705   -6.7189 F   0  0  0  0  0  0  0  0  0  0  0  0
  1  2  1  0
  1  3  1  0
  2  7  1  0
  2 14  1  0
  2 15  1  0
  3  4  1  0
  3 16  1  0
  3 17  1  0
  4  5  1  0
  4 30  1  0
  4 31  1  0
  5  8  1  0
  5 18  1  0
  5 19  1  0
  6  7  1  0
  6  9  1  0
  6 32  1  0
  6 33  1  0
  7 22  1  0
  7 23  1  0
  8 10  1  0
  8 20  1  0
  8 21  1  0
  9 11  1  0
  9 36  1  0
  9 37  1  0
 10 12  1  0
 10 34  1  0
 10 35  1  0
 11 13  1  0
 11 28  1  0
 11 29  1  0
 12 13  1  0
 12 24  1  0
 12 25  1  0
 13 26  1  0
 13 27  1  0
M  CHG  1   1   1
M  RAD  1   1   2
M  END
$$$$

     RDKit          3D

 37 37  0  0  0  0  0  0  0  0999 V2000
   -2.6057   -0.7814   -2.9126 S   0  0  0  0  0  2  0  0  0  0  0  0
   -2.3573    1.1548   -3.8470 Si  0  0  0  0  0  4  0  0  0  0  0  0
   -4.6961   -1.2857   -2.7769 Si  0  0  0  0  0  4  0  0  0  0  0  0
   -5.1494   -3.1378   -3.9425 Si  0  0  0  0  0  4  0  0  0  0  0  0
   -6.4499   -2.7163   -5.6684 Si  0  0  0  0  0  4  0  0  0  0  0  0
   -0.3485    1.4795   -6.8807 Si  0  0  0  0  0  4  0  0  0  0  0  0
   -2.3591    0.9750   -6.0566 Si  0  0  0  0  0  4  0  0  0  0  0  0
   -5.4753   -2.7040   -7.6163 Si  0  0  0  0  0  4  0  0  0  0  0  0
   -0.3501    1.5957   -9.0811 Si  0  0  0  0  0  4  0  0  0  0  0  0
   -3.6493   -3.9201   -7.7767 Si  0  0  0  0  0  4  0  0  0  0  0  0
   -1.4529   -0.0408  -10.0688 Si  0  0  0  0  0  4  0  0  0  0  0  0
   -2.6343   -3.4299   -9.7302 Si  0  0  0  0  0  4  0  0  0  0  0  0
   -0.8969   -2.0524   -9.3711 Si  0  0  0  0  0  4  0  0  0  0  0  0
   -3.6939    2.1044   -3.3774 F   0  0  0  0  0  0  0  0  0  0  0  0
   -0.9309    1.8383   -3.2672 F   0  0  0  0  0  0  0  0  0  0  0  0
   -5.0548   -1.4740   -1.1440 F   0  0  0  0  0  0  0  0  0  0  0  0
   -5.5858   -0.0038   -3.4474 F   0  0  0  0  0  0  0  0  0  0  0  0
   -7.1577   -1.1824   -5.4042 F   0  0  0  0  0  0  0  0  0  0  0  0
   -7.7632   -3.8085   -5.6989 F   0  0  0  0  0  0  0  0  0  0  0  0
   -6.5745   -3.2684   -8.7946 F   0  0  0  0  0  0  0  0  0  0  0  0
   -5.1141   -1.1097   -8.1121 F   0  0  0  0  0  0  0  0  0  0  0  0
   -3.5441    1.9953   -6.7354 F   0  0  0  0  0  0  0  0  0  0  0  0
   -2.6647   -0.6256   -6.4488 F   0  0  0  0  0  0  0  0  0  0  0  0
   -2.1158   -4.8875  -10.4038 F   0  0  0  0  0  0  0  0  0  0  0  0
   -3.7284   -2.7240  -10.8035 F   0  0  0  0  0  0  0  0  0  0  0  0
    0.3923   -2.6540  -10.3062 F   0  0  0  0  0  0  0  0  0  0  0  0
   -0.4102   -2.0980   -7.7715 F   0  0  0  0  0  0  0  0  0  0  0  0
   -1.1048    0.0521  -11.7368 F   0  0  0  0  0  0  0  0  0  0  0  0
   -3.1226    0.2560   -9.9248 F   0  0  0  0  0  0  0  0  0  0  0  0
   -5.9616   -4.1974   -2.8899 F   0  0  0  0  0  0  0  0  0  0  0  0
   -3.7028   -3.8657   -4.3422 F   0  0  0  0  0  0  0  0  0  0  0  0
    0.7436    0.3138   -6.3245 F   0  0  0  0  0  0  0  0  0  0  0  0
    0.0984    2.9814   -6.2553 F   0  0  0  0  0  0  0  0  0  0  0  0
   -2.5235   -3.6189   -6.5896 F   0  0  0  0  0  0  0  0  0  0  0  0
   -4.0723   -5.5537   -7.7269 F   0  0  0  0  0  0  0  0  0  0  0  0
    1.2308    1.6695   -9.6326 F   0  0  0  0  0  0  0  0  0  0  0  0
   -1.1067    3.0557   -9.5368 F   0  0  0  0  0  0  0  0  0  0  0  0
  1  2  1  0
  1  3  1  0
  2  7  1  0
  2 14  1  0
  2 15  1  0
  3  4  1  0
  3 16  1  0
  3 17  1  0
  4  5  1  0
  4 30  1  0
  4 31  1  0
  5  8  1  0
  5 18  1  0
  5 19  1  0
  6  7  1  0
  6  9  1  0
  6 32  1  0
  6 33  1  0
  7 22  1  0
  7 23  1  0
  8 10  1  0
  8 20  1  0
  8 21  1  0
  9 11  1  0
  9 36  1  0
  9 37  1  0
 10 12  1  0
 10 34  1  0
 10 35  1  0
 11 13  1  0
 11 28  1  0
 11 29  1  0
 12 13  1  0
 12 24  1  0
 12 25  1  0
 13 26  1  0
 13 27  1  0
M  CHG  1   1   1
M  RAD  1   1   2
M  END
$$$$

     RDKit          3D

 37 37  0  0  0  0  0  0  0  0999 V2000
   -2.6057   -0.7814   -2.9126 S   0  0  0  0  0  2  0  0  0  0  0  0
   -4.5198   -0.3184   -2.0152 Si  0  0  0  0  0  4  0  0  0  0  0  0
   -2.6920   -2.6818   -3.9242 Si  0  0  0  0  0  4  0  0  0  0  0  0
   -2.2960   -2.4428   -6.1107 Si  0  0  0  0  0  4  0  0  0  0  0  0
   -4.0760   -2.9151   -7.3173 Si  0  0  0  0  0  4  0  0  0  0  0  0
   -6.2715    2.7562   -2.9221 Si  0  0  0  0  0  4  0  0  0  0  0  0
   -5.8759    0.6348   -3.4873 Si  0  0  0  0  0  4  0  0  0  0  0  0
   -5.1436   -1.2090   -8.1502 Si  0  0  0  0  0  4  0  0  0  0  0  0
   -7.8278    3.6815   -4.1778 Si  0  0  0  0  0  4  0  0  0  0  0  0
   -3.9406    0.6046   -8.4711 Si  0  0  0  0  0  4  0  0  0  0  0  0
   -7.6274    3.2417   -6.3310 Si  0  0  0  0  0  4  0  0  0  0  0  0
   -5.3351    2.3104   -8.9529 Si  0  0  0  0  0  4  0  0  0  0  0  0
   -5.6157    3.6107   -7.1431 Si  0  0  0  0  0  4  0  0  0  0  0  0
   -5.2058   -1.8006   -1.5238 F   0  0  0  0  0  0  0  0  0  0  0  0
   -4.2470    0.6645   -0.6745 F   0  0  0  0  0  0  0  0  0  0  0  0
   -1.5569   -3.6845   -3.1916 F   0  0  0  0  0  0  0  0  0  0  0  0
   -4.2609   -3.3034   -3.7323 F   0  0  0  0  0  0  0  0  0  0  0  0
   -5.1481   -3.7910   -6.3137 F   0  0  0  0  0  0  0  0  0  0  0  0
   -3.6670   -3.9964   -8.5752 F   0  0  0  0  0  0  0  0  0  0  0  0
   -5.8179   -1.6521   -9.6549 F   0  0  0  0  0  0  0  0  0  0  0  0
   -6.4968   -0.8029   -7.1897 F   0  0  0  0  0  0  0  0  0  0  0  0
   -7.3426   -0.2279   -3.5904 F   0  0  0  0  0  0  0  0  0  0  0  0
   -5.0996    0.6572   -4.9725 F   0  0  0  0  0  0  0  0  0  0  0  0
   -4.6387    3.1836  -10.2177 F   0  0  0  0  0  0  0  0  0  0  0  0
   -6.8240    1.7232   -9.4878 F   0  0  0  0  0  0  0  0  0  0  0  0
   -5.4966    5.2197   -7.6865 F   0  0  0  0  0  0  0  0  0  0  0  0
   -4.3885    3.3724   -6.0319 F   0  0  0  0  0  0  0  0  0  0  0  0
   -8.7222    4.2576   -7.1566 F   0  0  0  0  0  0  0  0  0  0  0  0
   -8.1605    1.6513   -6.6193 F   0  0  0  0  0  0  0  0  0  0  0  0
   -1.0568   -3.5360   -6.5105 F   0  0  0  0  0  0  0  0  0  0  0  0
   -1.6900   -0.9094   -6.3631 F   0  0  0  0  0  0  0  0  0  0  0  0
   -4.8090    3.5992   -3.0296 F   0  0  0  0  0  0  0  0  0  0  0  0
   -6.7868    2.7699   -1.3156 F   0  0  0  0  0  0  0  0  0  0  0  0
   -3.0701    1.0894   -7.1391 F   0  0  0  0  0  0  0  0  0  0  0  0
   -2.8747    0.3358   -9.7524 F   0  0  0  0  0  0  0  0  0  0  0  0
   -7.8489    5.3348   -3.9045 F   0  0  0  0  0  0  0  0  0  0  0  0
   -9.3433    3.0739   -3.6817 F   0  0  0  0  0  0  0  0  0  0  0  0
  1  2  1  0
  1  3  1  0
  2  7  1  0
  2 14  1  0
  2 15  1  0
  3  4  1  0
  3 16  1  0
  3 17  1  0
  4  5  1  0
  4 30  1  0
  4 31  1  0
  5  8  1  0
  5 18  1  0
  5 19  1  0
  6  7  1  0
  6  9  1  0
  6 32  1  0
  6 33  1  0
  7 22  1  0
  7 23  1  0
  8 10  1  0
  8 20  1  0
  8 21  1  0
  9 11  1  0
  9 36  1  0
  9 37  1  0
 10 12  1  0
 10 34  1  0
 10 35  1  0
 11 13  1  0
 11 28  1  0
 11 29  1  0
 12 13  1  0
 12 24  1  0
 12 25  1  0
 13 26  1  0
 13 27  1  0
M  CHG  1   1   1
M  RAD  1   1   2
M  END
$$$$

     RDKit          3D

 37 37  0  0  0  0  0  0  0  0999 V2000
   -2.6057   -0.7814   -2.9126 S   0  0  0  0  0  2  0  0  0  0  0  0
   -4.0115   -2.3785   -2.7618 Si  0  0  0  0  0  4  0  0  0  0  0  0
   -3.0613    0.4746   -4.6269 Si  0  0  0  0  0  4  0  0  0  0  0  0
   -2.4702   -0.7432   -6.4324 Si  0  0  0  0  0  4  0  0  0  0  0  0
   -3.3698   -0.0175   -8.2841 Si  0  0  0  0  0  4  0  0  0  0  0  0
   -4.5149   -5.6818   -4.3093 Si  0  0  0  0  0  4  0  0  0  0  0  0
   -3.0766   -4.3731   -3.2464 Si  0  0  0  0  0  4  0  0  0  0  0  0
   -4.0973   -1.5390   -9.6731 Si  0  0  0  0  0  4  0  0  0  0  0  0
   -3.6419   -6.8641   -5.9489 Si  0  0  0  0  0  4  0  0  0  0  0  0
   -3.9973   -3.6362   -8.9549 Si  0  0  0  0  0  4  0  0  0  0  0  0
   -1.4910   -6.6332   -6.2280 Si  0  0  0  0  0  4  0  0  0  0  0  0
   -2.0745   -4.6056   -9.2935 Si  0  0  0  0  0  4  0  0  0  0  0  0
   -0.8192   -5.0393   -7.5550 Si  0  0  0  0  0  4  0  0  0  0  0  0
   -5.3065   -2.0809   -3.8046 F   0  0  0  0  0  0  0  0  0  0  0  0
   -4.6249   -2.3780   -1.1895 F   0  0  0  0  0  0  0  0  0  0  0  0
   -2.1010    1.8509   -4.5411 F   0  0  0  0  0  0  0  0  0  0  0  0
   -4.6936    0.8482   -4.6729 F   0  0  0  0  0  0  0  0  0  0  0  0
   -2.2028    0.9300   -9.1045 F   0  0  0  0  0  0  0  0  0  0  0  0
   -4.6025    1.0951   -7.8747 F   0  0  0  0  0  0  0  0  0  0  0  0
   -3.3123   -1.4678  -11.1886 F   0  0  0  0  0  0  0  0  0  0  0  0
   -5.7399   -1.2124  -10.0153 F   0  0  0  0  0  0  0  0  0  0  0  0
   -2.6527   -5.0534   -1.7351 F   0  0  0  0  0  0  0  0  0  0  0  0
   -1.6648   -4.1051   -4.0674 F   0  0  0  0  0  0  0  0  0  0  0  0
   -1.1601   -3.6017  -10.3397 F   0  0  0  0  0  0  0  0  0  0  0  0
   -2.2442   -6.0694  -10.1652 F   0  0  0  0  0  0  0  0  0  0  0  0
    0.6906   -5.5452   -8.2218 F   0  0  0  0  0  0  0  0  0  0  0  0
   -0.3410   -3.6305   -6.7131 F   0  0  0  0  0  0  0  0  0  0  0  0
   -0.7676   -6.4054   -4.6951 F   0  0  0  0  0  0  0  0  0  0  0  0
   -0.8559   -8.1275   -6.7746 F   0  0  0  0  0  0  0  0  0  0  0  0
   -2.9290   -2.2936   -6.0825 F   0  0  0  0  0  0  0  0  0  0  0  0
   -0.7708   -0.6776   -6.4924 F   0  0  0  0  0  0  0  0  0  0  0  0
   -5.2518   -6.6631   -3.1144 F   0  0  0  0  0  0  0  0  0  0  0  0
   -5.7904   -4.6836   -4.8595 F   0  0  0  0  0  0  0  0  0  0  0  0
   -4.5748   -3.6744   -7.4007 F   0  0  0  0  0  0  0  0  0  0  0  0
   -5.1683   -4.4827   -9.8862 F   0  0  0  0  0  0  0  0  0  0  0  0
   -3.9472   -8.5138   -5.5751 F   0  0  0  0  0  0  0  0  0  0  0  0
   -4.4965   -6.6609   -7.4158 F   0  0  0  0  0  0  0  0  0  0  0  0
  1  2  1  0
  1  3  1  0
  2  7  1  0
  2 14  1  0
  2 15  1  0
  3  4  1  0
  3 16  1  0
  3 17  1  0
  4  5  1  0
  4 30  1  0
  4 31  1  0
  5  8  1  0
  5 18  1  0
  5 19  1  0
  6  7  1  0
  6  9  1  0
  6 32  1  0
  6 33  1  0
  7 22  1  0
  7 23  1  0
  8 10  1  0
  8 20  1  0
  8 21  1  0
  9 11  1  0
  9 36  1  0
  9 37  1  0
 10 12  1  0
 10 34  1  0
 10 35  1  0
 11 13  1  0
 11 28  1  0
 11 29  1  0
 12 13  1  0
 12 24  1  0
 12 25  1  0
 13 26  1  0
 13 27  1  0
M  CHG  1   1   1
M  RAD  1   1   2
M  END
$$$$

     RDKit          3D

 37 37  0  0  0  0  0  0  0  0999 V2000
   -2.6057   -0.7814   -2.9126 S   0  0  0  0  0  2  0  0  0  0  0  0
   -1.7726   -2.0368   -4.4224 Si  0  0  0  0  0  4  0  0  0  0  0  0
   -4.7376   -0.5110   -3.2381 Si  0  0  0  0  0  4  0  0  0  0  0  0
   -4.8991    0.8590   -5.0240 Si  0  0  0  0  0  4  0  0  0  0  0  0
   -6.8708    0.8140   -5.9595 Si  0  0  0  0  0  4  0  0  0  0  0  0
   -0.6011   -1.6649   -7.8937 Si  0  0  0  0  0  4  0  0  0  0  0  0
   -0.4279   -0.8908   -5.8244 Si  0  0  0  0  0  4  0  0  0  0  0  0
   -6.9111    0.8310   -8.1440 Si  0  0  0  0  0  4  0  0  0  0  0  0
   -0.6011   -0.1143   -9.4570 Si  0  0  0  0  0  4  0  0  0  0  0  0
   -4.9379    0.7106   -9.1520 Si  0  0  0  0  0  4  0  0  0  0  0  0
   -0.3509    1.9326   -8.7460 Si  0  0  0  0  0  4  0  0  0  0  0  0
   -3.9454    2.6346   -9.4056 Si  0  0  0  0  0  4  0  0  0  0  0  0
   -2.1549    3.0351   -8.2140 Si  0  0  0  0  0  4  0  0  0  0  0  0
   -3.0230   -2.7669   -5.2921 F   0  0  0  0  0  0  0  0  0  0  0  0
   -0.9135   -3.2684   -3.6520 F   0  0  0  0  0  0  0  0  0  0  0  0
   -5.3838    0.2514   -1.8873 F   0  0  0  0  0  0  0  0  0  0  0  0
   -5.4823   -1.9791   -3.5484 F   0  0  0  0  0  0  0  0  0  0  0  0
   -7.7514    2.1745   -5.4058 F   0  0  0  0  0  0  0  0  0  0  0  0
   -7.7266   -0.5259   -5.3294 F   0  0  0  0  0  0  0  0  0  0  0  0
   -7.7359    2.1892   -8.7708 F   0  0  0  0  0  0  0  0  0  0  0  0
   -7.8195   -0.5161   -8.6748 F   0  0  0  0  0  0  0  0  0  0  0  0
    1.1574   -1.1293   -5.2272 F   0  0  0  0  0  0  0  0  0  0  0  0
   -0.7631    0.7227   -5.6710 F   0  0  0  0  0  0  0  0  0  0  0  0
   -5.0834    3.8624   -9.0365 F   0  0  0  0  0  0  0  0  0  0  0  0
   -3.5333    2.9278  -11.0412 F   0  0  0  0  0  0  0  0  0  0  0  0
   -1.8175    4.7069   -8.4808 F   0  0  0  0  0  0  0  0  0  0  0  0
   -2.4624    3.0352   -6.5325 F   0  0  0  0  0  0  0  0  0  0  0  0
    0.6925    1.9112   -7.3911 F   0  0  0  0  0  0  0  0  0  0  0  0
    0.5183    2.8116   -9.9320 F   0  0  0  0  0  0  0  0  0  0  0  0
   -3.7064    0.3683   -6.0600 F   0  0  0  0  0  0  0  0  0  0  0  0
   -4.5142    2.4124   -4.4455 F   0  0  0  0  0  0  0  0  0  0  0  0
    0.6674   -2.7980   -8.0950 F   0  0  0  0  0  0  0  0  0  0  0  0
   -2.0166   -2.6235   -7.9544 F   0  0  0  0  0  0  0  0  0  0  0  0
   -4.0535   -0.4790   -8.4083 F   0  0  0  0  0  0  0  0  0  0  0  0
   -5.2763    0.0983  -10.7223 F   0  0  0  0  0  0  0  0  0  0  0  0
    0.7196   -0.4723  -10.4972 F   0  0  0  0  0  0  0  0  0  0  0  0
   -1.9409   -0.2601  -10.5092 F   0  0  0  0  0  0  0  0  0  0  0  0
  1  2  1  0
  1  3  1  0
  2  7  1  0
  2 14  1  0
  2 15  1  0
  3  4  1  0
  3 16  1  0
  3 17  1  0
  4  5  1  0
  4 30  1  0
  4 31  1  0
  5  8  1  0
  5 18  1  0
  5 19  1  0
  6  7  1  0
  6  9  1  0
  6 32  1  0
  6 33  1  0
  7 22  1  0
  7 23  1  0
  8 10  1  0
  8 20  1  0
  8 21  1  0
  9 11  1  0
  9 36  1  0
  9 37  1  0
 10 12  1  0
 10 34  1  0
 10 35  1  0
 11 13  1  0
 11 28  1  0
 11 29  1  0
 12 13  1  0
 12 24  1  0
 12 25  1  0
 13 26  1  0
 13 27  1  0
M  CHG  1   1   1
M  RAD  1   1   2
M  END
$$$$

     RDKit          3D

 37 37  0  0  0  0  0  0  0  0999 V2000
   -2.6057   -0.7814   -2.9126 S   0  0  0  0  0  2  0  0  0  0  0  0
   -2.2895    1.1429   -3.8026 Si  0  0  0  0  0  4  0  0  0  0  0  0
   -4.6395   -1.3905   -3.0074 Si  0  0  0  0  0  4  0  0  0  0  0  0
   -4.8344   -3.5157   -3.6895 Si  0  0  0  0  0  4  0  0  0  0  0  0
   -2.8086   -4.1887   -4.3951 Si  0  0  0  0  0  4  0  0  0  0  0  0
   -3.1027    1.0443   -7.3171 Si  0  0  0  0  0  4  0  0  0  0  0  0
   -1.4446    0.9024   -5.8828 Si  0  0  0  0  0  4  0  0  0  0  0  0
   -2.9631   -6.1688   -5.4263 Si  0  0  0  0  0  4  0  0  0  0  0  0
   -2.7298    0.0703   -9.2513 Si  0  0  0  0  0  4  0  0  0  0  0  0
   -1.6298   -6.1303   -7.1933 Si  0  0  0  0  0  4  0  0  0  0  0  0
   -1.8648   -1.9485   -9.1097 Si  0  0  0  0  0  4  0  0  0  0  0  0
   -2.6961   -5.5263   -9.0429 Si  0  0  0  0  0  4  0  0  0  0  0  0
   -3.5098   -3.4654   -8.9068 Si  0  0  0  0  0  4  0  0  0  0  0  0
   -3.7251    2.0322   -3.8556 F   0  0  0  0  0  0  0  0  0  0  0  0
   -1.1213    1.9623   -2.9025 F   0  0  0  0  0  0  0  0  0  0  0  0
   -5.2785   -1.3126   -1.4301 F   0  0  0  0  0  0  0  0  0  0  0  0
   -5.5820   -0.3602   -3.9537 F   0  0  0  0  0  0  0  0  0  0  0  0
   -1.7692   -4.2672   -3.0725 F   0  0  0  0  0  0  0  0  0  0  0  0
   -2.2392   -3.0464   -5.4662 F   0  0  0  0  0  0  0  0  0  0  0  0
   -4.5362   -6.5560   -5.7980 F   0  0  0  0  0  0  0  0  0  0  0  0
   -2.3746   -7.3474   -4.3543 F   0  0  0  0  0  0  0  0  0  0  0  0
   -0.3194    2.1544   -6.1619 F   0  0  0  0  0  0  0  0  0  0  0  0
   -0.6360   -0.5485   -5.9070 F   0  0  0  0  0  0  0  0  0  0  0  0
   -3.9263   -6.6157   -9.3322 F   0  0  0  0  0  0  0  0  0  0  0  0
   -1.6120   -5.6015  -10.3312 F   0  0  0  0  0  0  0  0  0  0  0  0
   -4.5420   -3.2312  -10.2424 F   0  0  0  0  0  0  0  0  0  0  0  0
   -4.4148   -3.2192   -7.5312 F   0  0  0  0  0  0  0  0  0  0  0  0
   -1.0932   -2.2867  -10.5960 F   0  0  0  0  0  0  0  0  0  0  0  0
   -0.7265   -2.1211   -7.9121 F   0  0  0  0  0  0  0  0  0  0  0  0
   -5.9604   -3.6779   -4.9070 F   0  0  0  0  0  0  0  0  0  0  0  0
   -5.2754   -4.5275   -2.4187 F   0  0  0  0  0  0  0  0  0  0  0  0
   -3.3868    2.7009   -7.6161 F   0  0  0  0  0  0  0  0  0  0  0  0
   -4.5368    0.4401   -6.6494 F   0  0  0  0  0  0  0  0  0  0  0  0
   -0.9926   -7.6697   -7.4320 F   0  0  0  0  0  0  0  0  0  0  0  0
   -0.3404   -5.0698   -6.8833 F   0  0  0  0  0  0  0  0  0  0  0  0
   -4.2028   -0.0389  -10.0923 F   0  0  0  0  0  0  0  0  0  0  0  0
   -1.7198    1.0537  -10.1930 F   0  0  0  0  0  0  0  0  0  0  0  0
  1  2  1  0
  1  3  1  0
  2  7  1  0
  2 14  1  0
  2 15  1  0
  3  4  1  0
  3 16  1  0
  3 17  1  0
  4  5  1  0
  4 30  1  0
  4 31  1  0
  5  8  1  0
  5 18  1  0
  5 19  1  0
  6  7  1  0
  6  9  1  0
  6 32  1  0
  6 33  1  0
  7 22  1  0
  7 23  1  0
  8 10  1  0
  8 20  1  0
  8 21  1  0
  9 11  1  0
  9 36  1  0
  9 37  1  0
 10 12  1  0
 10 34  1  0
 10 35  1  0
 11 13  1  0
 11 28  1  0
 11 29  1  0
 12 13  1  0
 12 24  1  0
 12 25  1  0
 13 26  1  0
 13 27  1  0
M  CHG  1   1   1
M  RAD  1   1   2
M  END
$$$$

     RDKit          3D

 37 37  0  0  0  0  0  0  0  0999 V2000
   -2.6057   -0.7814   -2.9126 S   0  0  0  0  0  2  0  0  0  0  0  0
   -1.9438    0.9945   -3.9646 Si  0  0  0  0  0  4  0  0  0  0  0  0
   -3.9671   -1.9026   -4.1739 Si  0  0  0  0  0  4  0  0  0  0  0  0
   -3.5675   -4.0483   -3.8697 Si  0  0  0  0  0  4  0  0  0  0  0  0
   -4.4997   -5.3574   -5.3693 Si  0  0  0  0  0  4  0  0  0  0  0  0
   -2.8438    0.9872   -7.5521 Si  0  0  0  0  0  4  0  0  0  0  0  0
   -3.4091    1.5424   -5.5045 Si  0  0  0  0  0  4  0  0  0  0  0  0
   -5.8242   -4.3107   -6.7818 Si  0  0  0  0  0  4  0  0  0  0  0  0
   -0.9623   -0.1405   -7.7051 Si  0  0  0  0  0  4  0  0  0  0  0  0
   -5.4473   -4.9571   -8.8695 Si  0  0  0  0  0  4  0  0  0  0  0  0
   -1.0760   -1.5570   -9.4536 Si  0  0  0  0  0  4  0  0  0  0  0  0
   -3.9834   -3.6466   -9.9116 Si  0  0  0  0  0  4  0  0  0  0  0  0
   -2.0711   -3.4708   -8.8288 Si  0  0  0  0  0  4  0  0  0  0  0  0
   -1.8728    2.2260   -2.7832 F   0  0  0  0  0  0  0  0  0  0  0  0
   -0.3844    0.8016   -4.5499 F   0  0  0  0  0  0  0  0  0  0  0  0
   -5.5684   -1.5855   -3.7137 F   0  0  0  0  0  0  0  0  0  0  0  0
   -3.7014   -1.3939   -5.7341 F   0  0  0  0  0  0  0  0  0  0  0  0
   -5.3769   -6.5674   -4.5428 F   0  0  0  0  0  0  0  0  0  0  0  0
   -3.3204   -6.1984   -6.2711 F   0  0  0  0  0  0  0  0  0  0  0  0
   -5.7040   -2.6405   -6.7023 F   0  0  0  0  0  0  0  0  0  0  0  0
   -7.4474   -4.6979   -6.4149 F   0  0  0  0  0  0  0  0  0  0  0  0
   -4.8907    0.7805   -5.1315 F   0  0  0  0  0  0  0  0  0  0  0  0
   -3.7312    3.2164   -5.4007 F   0  0  0  0  0  0  0  0  0  0  0  0
   -4.6724   -2.1292  -10.2576 F   0  0  0  0  0  0  0  0  0  0  0  0
   -3.6666   -4.3637  -11.4244 F   0  0  0  0  0  0  0  0  0  0  0  0
   -2.2137   -3.5619   -7.1786 F   0  0  0  0  0  0  0  0  0  0  0  0
   -1.0520   -4.7465   -9.3265 F   0  0  0  0  0  0  0  0  0  0  0  0
    0.5088   -1.8399   -9.9620 F   0  0  0  0  0  0  0  0  0  0  0  0
   -1.9135   -0.8370  -10.7275 F   0  0  0  0  0  0  0  0  0  0  0  0
   -4.0527   -4.4572   -2.2868 F   0  0  0  0  0  0  0  0  0  0  0  0
   -1.8831   -4.2877   -3.9106 F   0  0  0  0  0  0  0  0  0  0  0  0
   -2.6913    2.4063   -8.4907 F   0  0  0  0  0  0  0  0  0  0  0  0
   -4.0708    0.0821   -8.3216 F   0  0  0  0  0  0  0  0  0  0  0  0
   -4.9397   -6.5507   -8.9662 F   0  0  0  0  0  0  0  0  0  0  0  0
   -6.9179   -4.8505   -9.7297 F   0  0  0  0  0  0  0  0  0  0  0  0
    0.3049    0.9402   -8.0528 F   0  0  0  0  0  0  0  0  0  0  0  0
   -0.5736   -1.0073   -6.3370 F   0  0  0  0  0  0  0  0  0  0  0  0
  1  2  1  0
  1  3  1  0
  2  7  1  0
  2 14  1  0
  2 15  1  0
  3  4  1  0
  3 16  1  0
  3 17  1  0
  4  5  1  0
  4 30  1  0
  4 31  1  0
  5  8  1  0
  5 18  1  0
  5 19  1  0
  6  7  1  0
  6  9  1  0
  6 32  1  0
  6 33  1  0
  7 22  1  0
  7 23  1  0
  8 10  1  0
  8 20  1  0
  8 21  1  0
  9 11  1  0
  9 36  1  0
  9 37  1  0
 10 12  1  0
 10 34  1  0
 10 35  1  0
 11 13  1  0
 11 28  1  0
 11 29  1  0
 12 13  1  0
 12 24  1  0
 12 25  1  0
 13 26  1  0
 13 27  1  0
M  CHG  1   1   1
M  RAD  1   1   2
M  END
$$$$
