
     RDKit          3D

 37 37  0  0  0  0  0  0  0  0999 V2000
    0.0020   -0.0003    3.1887 S   0  0  0  0  0  2  0  0  0  0  0  0
   -1.3870   -0.4020    4.7485 Si  0  0  0  0  0  4  0  0  0  0  0  0
    2.0290   -0.1549    3.8229 Si  0  0  0  0  0  4  0  0  0  0  0  0
    2.2917   -2.0287    4.9666 Si  0  0  0  0  0  4  0  0  0  0  0  0
    3.8812   -1.8180    6.5502 Si  0  0  0  0  0  4  0  0  0  0  0  0
   -1.1408   -0.4599    8.4319 Si  0  0  0  0  0  4  0  0  0  0  0  0
   -0.8450    0.7342    6.5568 Si  0  0  0  0  0  4  0  0  0  0  0  0
    3.4021   -3.2993    8.1212 Si  0  0  0  0  0  4  0  0  0  0  0  0
    0.3348    0.2961    9.9278 Si  0  0  0  0  0  4  0  0  0  0  0  0
    4.5015   -2.9745   10.0007 Si  0  0  0  0  0  4  0  0  0  0  0  0
    0.7622   -1.1571   11.5183 Si  0  0  0  0  0  4  0  0  0  0  0  0
    4.3656   -0.9295   10.7859 Si  0  0  0  0  0  4  0  0  0  0  0  0
    2.7891   -0.7864   12.3520 Si  0  0  0  0  0  4  0  0  0  0  0  0
   -2.9170    0.1453    4.2229 F   0  0  0  0  0  0  0  0  0  0  0  0
   -1.5564   -2.0523    5.0415 F   0  0  0  0  0  0  0  0  0  0  0  0
    2.9941   -0.2660    2.4191 F   0  0  0  0  0  0  0  0  0  0  0  0
    2.5544    1.2031    4.6578 F   0  0  0  0  0  0  0  0  0  0  0  0
    3.9544   -0.2538    7.1025 F   0  0  0  0  0  0  0  0  0  0  0  0
    5.3562   -2.2691    5.8347 F   0  0  0  0  0  0  0  0  0  0  0  0
    3.8327   -4.8404    7.5227 F   0  0  0  0  0  0  0  0  0  0  0  0
    1.7280   -3.3304    8.3295 F   0  0  0  0  0  0  0  0  0  0  0  0
    0.7693    1.1806    6.4781 F   0  0  0  0  0  0  0  0  0  0  0  0
   -1.7512    2.1738    6.6789 F   0  0  0  0  0  0  0  0  0  0  0  0
    5.8491   -0.5562   11.5476 F   0  0  0  0  0  0  0  0  0  0  0  0
    4.1426    0.2376    9.5961 F   0  0  0  0  0  0  0  0  0  0  0  0
    3.1617   -1.8668   13.5878 F   0  0  0  0  0  0  0  0  0  0  0  0
    2.8092    0.8165   12.9350 F   0  0  0  0  0  0  0  0  0  0  0  0
    0.5666   -2.7545   11.0338 F   0  0  0  0  0  0  0  0  0  0  0  0
   -0.3509   -0.9003   12.7879 F   0  0  0  0  0  0  0  0  0  0  0  0
    2.7038   -3.2863    3.9505 F   0  0  0  0  0  0  0  0  0  0  0  0
    0.8650   -2.3801    5.7689 F   0  0  0  0  0  0  0  0  0  0  0  0
   -2.6904   -0.0712    9.0173 F   0  0  0  0  0  0  0  0  0  0  0  0
   -1.0003   -2.0946    8.1637 F   0  0  0  0  0  0  0  0  0  0  0  0
    3.9080   -4.0499   11.1620 F   0  0  0  0  0  0  0  0  0  0  0  0
    6.1305   -3.4069    9.7440 F   0  0  0  0  0  0  0  0  0  0  0  0
   -0.3218    1.6997   10.6408 F   0  0  0  0  0  0  0  0  0  0  0  0
    1.7079    0.7871    9.0805 F   0  0  0  0  0  0  0  0  0  0  0  0
  1  2  1  0
  1  3  1  0
  2  7  1  0
  2 14  1  0
  2 15  1  0
  3  4  1  0
  3 16  1  0
  3 17  1  0
  4  5  1  0
  4 30  1  0
  4 31  1  0
  5  8  1  0
  5 18  1  0
  5 19  1  0
  6  7  1  0
  6  9  1  0
  6 32  1  0
  6 33  1  0
  7 22  1  0
  7 23  1  0
  8 10  1  0
  8 20  1  0
  8 21  1  0
  9 11  1  0
  9 36  1  0
  9 37  1  0
 10 12  1  0
 10 34  1  0
 10 35  1  0
 11 13  1  0
 11 28  1  0
 11 29  1  0
 12 13  1  0
 12 24  1  0
 12 25  1  0
 13 26  1  0
 13 27  1  0
M  CHG  1   1   1
M  RAD  1   1   2
M  END
$$$$

     RDKit          3D

 37 37  0  0  0  0  0  0  0  0999 V2000
    0.0020   -0.0003    3.1887 S   0  0  0  0  0  2  0  0  0  0  0  0
   -1.3285   -0.1236    4.8265 Si  0  0  0  0  0  4  0  0  0  0  0  0
    2.0215    0.3200    3.7531 Si  0  0  0  0  0  4  0  0  0  0  0  0
    2.7335   -1.1587    5.2580 Si  0  0  0  0  0  4  0  0  0  0  0  0
    3.8365   -0.1405    6.9283 Si  0  0  0  0  0  4  0  0  0  0  0  0
   -2.8714    2.1201    7.2723 Si  0  0  0  0  0  4  0  0  0  0  0  0
   -0.9800    1.5506    6.3022 Si  0  0  0  0  0  4  0  0  0  0  0  0
    3.8280   -1.3736    8.7708 Si  0  0  0  0  0  4  0  0  0  0  0  0
   -2.7570    2.6402    9.3782 Si  0  0  0  0  0  4  0  0  0  0  0  0
    2.6023   -0.4459   10.3896 Si  0  0  0  0  0  4  0  0  0  0  0  0
   -0.8578    2.1629   10.3972 Si  0  0  0  0  0  4  0  0  0  0  0  0
    0.5466   -1.2512   10.2708 Si  0  0  0  0  0  4  0  0  0  0  0  0
   -0.9395    0.1060   11.2008 Si  0  0  0  0  0  4  0  0  0  0  0  0
   -1.2118   -1.6125    5.6191 F   0  0  0  0  0  0  0  0  0  0  0  0
   -2.9193    0.0537    4.2784 F   0  0  0  0  0  0  0  0  0  0  0  0
    2.2806    1.8934    4.3017 F   0  0  0  0  0  0  0  0  0  0  0  0
    2.9879    0.1289    2.3598 F   0  0  0  0  0  0  0  0  0  0  0  0
    5.4591    0.0455    6.4355 F   0  0  0  0  0  0  0  0  0  0  0  0
    3.2281    1.4077    7.2021 F   0  0  0  0  0  0  0  0  0  0  0  0
    3.1719   -2.8949    8.4443 F   0  0  0  0  0  0  0  0  0  0  0  0
    5.3836   -1.5999    9.3757 F   0  0  0  0  0  0  0  0  0  0  0  0
    0.2001    1.0364    7.3453 F   0  0  0  0  0  0  0  0  0  0  0  0
   -0.3396    2.8358    5.3862 F   0  0  0  0  0  0  0  0  0  0  0  0
    0.1563   -1.6478    8.6844 F   0  0  0  0  0  0  0  0  0  0  0  0
    0.5129   -2.7083   11.1601 F   0  0  0  0  0  0  0  0  0  0  0  0
   -0.6999    0.0618   12.8813 F   0  0  0  0  0  0  0  0  0  0  0  0
   -2.4843   -0.5710   10.9368 F   0  0  0  0  0  0  0  0  0  0  0  0
   -0.6962    3.2183   11.7318 F   0  0  0  0  0  0  0  0  0  0  0  0
    0.4935    2.4478    9.4485 F   0  0  0  0  0  0  0  0  0  0  0  0
    1.4541   -2.0690    5.8721 F   0  0  0  0  0  0  0  0  0  0  0  0
    3.8309   -2.2637    4.5633 F   0  0  0  0  0  0  0  0  0  0  0  0
   -3.5428    3.4138    6.3779 F   0  0  0  0  0  0  0  0  0  0  0  0
   -3.9795    0.8351    7.0585 F   0  0  0  0  0  0  0  0  0  0  0  0
    2.5666    1.2142   10.2774 F   0  0  0  0  0  0  0  0  0  0  0  0
    3.2559   -0.8760   11.8898 F   0  0  0  0  0  0  0  0  0  0  0  0
   -3.0681    4.3088    9.5813 F   0  0  0  0  0  0  0  0  0  0  0  0
   -4.0101    1.8737   10.2535 F   0  0  0  0  0  0  0  0  0  0  0  0
  1  2  1  0
  1  3  1  0
  2  7  1  0
  2 14  1  0
  2 15  1  0
  3  4  1  0
  3 16  1  0
  3 17  1  0
  4  5  1  0
  4 30  1  0
  4 31  1  0
  5  8  1  0
  5 18  1  0
  5 19  1  0
  6  7  1  0
  6  9  1  0
  6 32  1  0
  6 33  1  0
  7 22  1  0
  7 23  1  0
  8 10  1  0
  8 20  1  0
  8 21  1  0
  9 11  1  0
  9 36  1  0
  9 37  1  0
 10 12  1  0
 10 34  1  0
 10 35  1  0
 11 13  1  0
 11 28  1  0
 11 29  1  0
 12 13  1  0
 12 24  1  0
 12 25  1  0
 13 26  1  0
 13 27  1  0
M  CHG  1   1   1
M  RAD  1   1   2
M  END
$$$$

     RDKit          3D

 37 37  0  0  0  0  0  0  0  0999 V2000
    0.0020   -0.0003    3.1887 S   0  0  0  0  0  2  0  0  0  0  0  0
   -0.1889   -1.9139    4.1614 Si  0  0  0  0  0  4  0  0  0  0  0  0
    1.7247    1.0577    3.8785 Si  0  0  0  0  0  4  0  0  0  0  0  0
    1.1439    2.9744    4.8920 Si  0  0  0  0  0  4  0  0  0  0  0  0
    2.6966    3.4170    6.4441 Si  0  0  0  0  0  4  0  0  0  0  0  0
    0.1129   -1.9556    7.8371 Si  0  0  0  0  0  4  0  0  0  0  0  0
   -1.2671   -1.6709    6.0779 Si  0  0  0  0  0  4  0  0  0  0  0  0
    1.7586    4.3797    8.2450 Si  0  0  0  0  0  4  0  0  0  0  0  0
   -0.7013   -0.7290    9.5073 Si  0  0  0  0  0  4  0  0  0  0  0  0
    1.9042    3.0350   10.0002 Si  0  0  0  0  0  4  0  0  0  0  0  0
    0.6628   -0.6703   11.2507 Si  0  0  0  0  0  4  0  0  0  0  0  0
    0.0396    2.9642   11.1857 Si  0  0  0  0  0  4  0  0  0  0  0  0
    0.1158    1.1270   12.4878 Si  0  0  0  0  0  4  0  0  0  0  0  0
   -1.1434   -2.8876    3.1444 F   0  0  0  0  0  0  0  0  0  0  0  0
    1.3141   -2.6510    4.3596 F   0  0  0  0  0  0  0  0  0  0  0  0
    2.5408    0.1243    5.0346 F   0  0  0  0  0  0  0  0  0  0  0  0
    2.7649    1.3943    2.5861 F   0  0  0  0  0  0  0  0  0  0  0  0
    3.3907    1.9405    6.9322 F   0  0  0  0  0  0  0  0  0  0  0  0
    3.9369    4.3589    5.8238 F   0  0  0  0  0  0  0  0  0  0  0  0
    2.6307    5.7965    8.5653 F   0  0  0  0  0  0  0  0  0  0  0  0
    0.1675    4.7838    7.9329 F   0  0  0  0  0  0  0  0  0  0  0  0
   -2.5448   -2.7419    6.2505 F   0  0  0  0  0  0  0  0  0  0  0  0
   -1.9131   -0.1031    6.1741 F   0  0  0  0  0  0  0  0  0  0  0  0
   -1.3419    2.9991   10.2570 F   0  0  0  0  0  0  0  0  0  0  0  0
   -0.0233    4.2922   12.2523 F   0  0  0  0  0  0  0  0  0  0  0  0
   -1.4163    0.8300   13.1579 F   0  0  0  0  0  0  0  0  0  0  0  0
    1.2501    1.4039   13.6888 F   0  0  0  0  0  0  0  0  0  0  0  0
    0.4298   -2.0263   12.2581 F   0  0  0  0  0  0  0  0  0  0  0  0
    2.2767   -0.6499   10.8218 F   0  0  0  0  0  0  0  0  0  0  0  0
   -0.3226    2.7551    5.7060 F   0  0  0  0  0  0  0  0  0  0  0  0
    1.0559    4.2123    3.7653 F   0  0  0  0  0  0  0  0  0  0  0  0
    0.1612   -3.5921    8.2814 F   0  0  0  0  0  0  0  0  0  0  0  0
    1.6861   -1.5096    7.4420 F   0  0  0  0  0  0  0  0  0  0  0  0
    3.1606    3.5389   11.0363 F   0  0  0  0  0  0  0  0  0  0  0  0
    2.3435    1.4968    9.4456 F   0  0  0  0  0  0  0  0  0  0  0  0
   -2.1983   -1.3816    9.9492 F   0  0  0  0  0  0  0  0  0  0  0  0
   -0.9657    0.8396    8.9236 F   0  0  0  0  0  0  0  0  0  0  0  0
  1  2  1  0
  1  3  1  0
  2  7  1  0
  2 14  1  0
  2 15  1  0
  3  4  1  0
  3 16  1  0
  3 17  1  0
  4  5  1  0
  4 30  1  0
  4 31  1  0
  5  8  1  0
  5 18  1  0
  5 19  1  0
  6  7  1  0
  6  9  1  0
  6 32  1  0
  6 33  1  0
  7 22  1  0
  7 23  1  0
  8 10  1  0
  8 20  1  0
  8 21  1  0
  9 11  1  0
  9 36  1  0
  9 37  1  0
 10 12  1  0
 10 34  1  0
 10 35  1  0
 11 13  1  0
 11 28  1  0
 11 29  1  0
 12 13  1  0
 12 24  1  0
 12 25  1  0
 13 26  1  0
 13 27  1  0
M  CHG  1   1   1
M  RAD  1   1   2
M  END
$$$$
