
     RDKit          3D

 37 37  0  0  0  0  0  0  0  0999 V2000
    1.6483   -0.4634   -2.7161 S   0  0  0  0  0  2  0  0  0  0  0  0
    1.2336    1.0772   -4.1064 Si  0  0  0  0  0  4  0  0  0  0  0  0
    1.3287   -2.3226   -3.7930 Si  0  0  0  0  0  4  0  0  0  0  0  0
    3.1985   -2.9863   -4.7358 Si  0  0  0  0  0  4  0  0  0  0  0  0
    3.5878   -2.2024   -6.7286 Si  0  0  0  0  0  4  0  0  0  0  0  0
    1.5764    4.4369   -5.2123 Si  0  0  0  0  0  4  0  0  0  0  0  0
    1.8945    3.0878   -3.4269 Si  0  0  0  0  0  4  0  0  0  0  0  0
    1.7865   -1.9088   -7.9927 Si  0  0  0  0  0  4  0  0  0  0  0  0
    2.9445    3.8692   -6.8758 Si  0  0  0  0  0  4  0  0  0  0  0  0
    2.3797   -0.7802   -9.7920 Si  0  0  0  0  0  4  0  0  0  0  0  0
    1.8994    3.8646   -8.8421 Si  0  0  0  0  0  4  0  0  0  0  0  0
    0.9147    0.7118  -10.4725 Si  0  0  0  0  0  4  0  0  0  0  0  0
    0.3890    2.2496   -8.9943 Si  0  0  0  0  0  4  0  0  0  0  0  0
   -0.4148    1.1598   -4.4545 F   0  0  0  0  0  0  0  0  0  0  0  0
    2.1250    0.7383   -5.5199 F   0  0  0  0  0  0  0  0  0  0  0  0
    0.8688   -3.4631   -2.6083 F   0  0  0  0  0  0  0  0  0  0  0  0
    0.0469   -2.1754   -4.8516 F   0  0  0  0  0  0  0  0  0  0  0  0
    4.4552   -0.7313   -6.7076 F   0  0  0  0  0  0  0  0  0  0  0  0
    4.6028   -3.2957   -7.5639 F   0  0  0  0  0  0  0  0  0  0  0  0
    0.5200   -1.1959   -7.1579 F   0  0  0  0  0  0  0  0  0  0  0  0
    1.2388   -3.4679   -8.4336 F   0  0  0  0  0  0  0  0  0  0  0  0
    3.5141    3.0797   -2.9861 F   0  0  0  0  0  0  0  0  0  0  0  0
    0.8930    3.6266   -2.1945 F   0  0  0  0  0  0  0  0  0  0  0  0
    1.5316    1.4714  -11.8485 F   0  0  0  0  0  0  0  0  0  0  0  0
   -0.4907   -0.1134  -10.9767 F   0  0  0  0  0  0  0  0  0  0  0  0
    0.0305    1.6175   -7.4798 F   0  0  0  0  0  0  0  0  0  0  0  0
   -1.0670    2.9759   -9.5269 F   0  0  0  0  0  0  0  0  0  0  0  0
    3.0767    3.6813  -10.0477 F   0  0  0  0  0  0  0  0  0  0  0  0
    1.2142    5.3980   -9.0580 F   0  0  0  0  0  0  0  0  0  0  0  0
    3.2015   -4.6929   -4.7763 F   0  0  0  0  0  0  0  0  0  0  0  0
    4.4936   -2.5589   -3.7074 F   0  0  0  0  0  0  0  0  0  0  0  0
   -0.0113    4.1709   -5.7351 F   0  0  0  0  0  0  0  0  0  0  0  0
    1.7741    6.0471   -4.7663 F   0  0  0  0  0  0  0  0  0  0  0  0
    2.6333   -1.8752  -11.0537 F   0  0  0  0  0  0  0  0  0  0  0  0
    3.8741    0.0175   -9.5684 F   0  0  0  0  0  0  0  0  0  0  0  0
    3.7292    2.4122   -6.5813 F   0  0  0  0  0  0  0  0  0  0  0  0
    4.1476    5.0672   -6.9584 F   0  0  0  0  0  0  0  0  0  0  0  0
  1  2  1  0
  1  3  1  0
  2  7  1  0
  2 14  1  0
  2 15  1  0
  3  4  1  0
  3 16  1  0
  3 17  1  0
  4  5  1  0
  4 30  1  0
  4 31  1  0
  5  8  1  0
  5 18  1  0
  5 19  1  0
  6  7  1  0
  6  9  1  0
  6 32  1  0
  6 33  1  0
  7 22  1  0
  7 23  1  0
  8 10  1  0
  8 20  1  0
  8 21  1  0
  9 11  1  0
  9 36  1  0
  9 37  1  0
 10 12  1  0
 10 34  1  0
 10 35  1  0
 11 13  1  0
 11 28  1  0
 11 29  1  0
 12 13  1  0
 12 24  1  0
 12 25  1  0
 13 26  1  0
 13 27  1  0
M  CHG  1   1   1
M  RAD  1   1   2
M  END
$$$$

     RDKit          3D

 37 37  0  0  0  0  0  0  0  0999 V2000
    1.6483   -0.4634   -2.7161 S   0  0  0  0  0  2  0  0  0  0  0  0
    1.7685   -2.2771   -3.8375 Si  0  0  0  0  0  4  0  0  0  0  0  0
    1.1225    1.1641   -4.0503 Si  0  0  0  0  0  4  0  0  0  0  0  0
    2.8429    1.3951   -5.4589 Si  0  0  0  0  0  4  0  0  0  0  0  0
    2.4763    3.0629   -6.8882 Si  0  0  0  0  0  4  0  0  0  0  0  0
    3.9875   -3.8074   -6.3358 Si  0  0  0  0  0  4  0  0  0  0  0  0
    3.8994   -2.7185   -4.4286 Si  0  0  0  0  0  4  0  0  0  0  0  0
    4.0650    3.1040   -8.4333 Si  0  0  0  0  0  4  0  0  0  0  0  0
    4.7549   -2.6616   -8.0301 Si  0  0  0  0  0  4  0  0  0  0  0  0
    6.1001    3.0398   -7.5981 Si  0  0  0  0  0  4  0  0  0  0  0  0
    6.3951   -1.2643   -7.5431 Si  0  0  0  0  0  4  0  0  0  0  0  0
    7.5400    1.9625   -8.9072 Si  0  0  0  0  0  4  0  0  0  0  0  0
    6.8427   -0.0889   -9.3969 Si  0  0  0  0  0  4  0  0  0  0  0  0
    0.7711   -2.2537   -5.1952 F   0  0  0  0  0  0  0  0  0  0  0  0
    1.1820   -3.5273   -2.8339 F   0  0  0  0  0  0  0  0  0  0  0  0
   -0.2299    0.7227   -4.9575 F   0  0  0  0  0  0  0  0  0  0  0  0
    0.8620    2.5745   -3.1887 F   0  0  0  0  0  0  0  0  0  0  0  0
    2.3189    4.5403   -6.1141 F   0  0  0  0  0  0  0  0  0  0  0  0
    1.0070    2.7372   -7.6740 F   0  0  0  0  0  0  0  0  0  0  0  0
    3.8826    4.5546   -9.3160 F   0  0  0  0  0  0  0  0  0  0  0  0
    3.8710    1.8499   -9.5421 F   0  0  0  0  0  0  0  0  0  0  0  0
    4.7900   -1.3162   -4.3972 F   0  0  0  0  0  0  0  0  0  0  0  0
    4.5155   -3.7357   -3.2019 F   0  0  0  0  0  0  0  0  0  0  0  0
    7.6886    2.8180  -10.3484 F   0  0  0  0  0  0  0  0  0  0  0  0
    9.0384    1.9577   -8.1465 F   0  0  0  0  0  0  0  0  0  0  0  0
    5.4676    0.0328  -10.3514 F   0  0  0  0  0  0  0  0  0  0  0  0
    8.0352   -0.8520  -10.2955 F   0  0  0  0  0  0  0  0  0  0  0  0
    7.7763   -2.1664   -7.1821 F   0  0  0  0  0  0  0  0  0  0  0  0
    6.0094   -0.1912   -6.3335 F   0  0  0  0  0  0  0  0  0  0  0  0
    4.2146    1.6310   -4.5392 F   0  0  0  0  0  0  0  0  0  0  0  0
    2.9288   -0.0363   -6.3716 F   0  0  0  0  0  0  0  0  0  0  0  0
    2.4051   -4.3254   -6.7220 F   0  0  0  0  0  0  0  0  0  0  0  0
    4.9021   -5.2411   -6.1809 F   0  0  0  0  0  0  0  0  0  0  0  0
    6.6648    4.6349   -7.4345 F   0  0  0  0  0  0  0  0  0  0  0  0
    6.1642    2.3441   -6.0689 F   0  0  0  0  0  0  0  0  0  0  0  0
    5.3135   -3.7357   -9.2219 F   0  0  0  0  0  0  0  0  0  0  0  0
    3.4998   -1.7721   -8.7511 F   0  0  0  0  0  0  0  0  0  0  0  0
  1  2  1  0
  1  3  1  0
  2  7  1  0
  2 14  1  0
  2 15  1  0
  3  4  1  0
  3 16  1  0
  3 17  1  0
  4  5  1  0
  4 30  1  0
  4 31  1  0
  5  8  1  0
  5 18  1  0
  5 19  1  0
  6  7  1  0
  6  9  1  0
  6 32  1  0
  6 33  1  0
  7 22  1  0
  7 23  1  0
  8 10  1  0
  8 20  1  0
  8 21  1  0
  9 11  1  0
  9 36  1  0
  9 37  1  0
 10 12  1  0
 10 34  1  0
 10 35  1  0
 11 13  1  0
 11 28  1  0
 11 29  1  0
 12 13  1  0
 12 24  1  0
 12 25  1  0
 13 26  1  0
 13 27  1  0
M  CHG  1   1   1
M  RAD  1   1   2
M  END
$$$$

     RDKit          3D

 37 37  0  0  0  0  0  0  0  0999 V2000
    1.6483   -0.4634   -2.7161 S   0  0  0  0  0  2  0  0  0  0  0  0
    3.0547    1.1138   -3.0259 Si  0  0  0  0  0  4  0  0  0  0  0  0
    2.6599   -2.3704   -2.9294 Si  0  0  0  0  0  4  0  0  0  0  0  0
    3.3044   -2.4977   -5.0662 Si  0  0  0  0  0  4  0  0  0  0  0  0
    4.3390   -4.4285   -5.4664 Si  0  0  0  0  0  4  0  0  0  0  0  0
    4.9358    2.5937   -5.8148 Si  0  0  0  0  0  4  0  0  0  0  0  0
    2.9730    1.8591   -5.1526 Si  0  0  0  0  0  4  0  0  0  0  0  0
    5.1972   -4.4227   -7.5101 Si  0  0  0  0  0  4  0  0  0  0  0  0
    5.9494    1.3451   -7.2933 Si  0  0  0  0  0  4  0  0  0  0  0  0
    3.7604   -3.8111   -9.0609 Si  0  0  0  0  0  4  0  0  0  0  0  0
    4.6207    0.4080   -8.7888 Si  0  0  0  0  0  4  0  0  0  0  0  0
    4.7167   -2.7150  -10.7437 Si  0  0  0  0  0  4  0  0  0  0  0  0
    5.8813   -0.9605  -10.0366 Si  0  0  0  0  0  4  0  0  0  0  0  0
    4.6245    0.6562   -2.6196 F   0  0  0  0  0  0  0  0  0  0  0  0
    2.6333    2.3784   -1.9594 F   0  0  0  0  0  0  0  0  0  0  0  0
    4.0491   -2.3714   -1.9719 F   0  0  0  0  0  0  0  0  0  0  0  0
    1.6325   -3.6318   -2.5389 F   0  0  0  0  0  0  0  0  0  0  0  0
    3.3406   -5.7495   -5.2115 F   0  0  0  0  0  0  0  0  0  0  0  0
    5.6302   -4.5432   -4.3700 F   0  0  0  0  0  0  0  0  0  0  0  0
    5.7225   -6.0121   -7.8487 F   0  0  0  0  0  0  0  0  0  0  0  0
    6.5674   -3.4454   -7.5942 F   0  0  0  0  0  0  0  0  0  0  0  0
    2.3128    0.6890   -6.1299 F   0  0  0  0  0  0  0  0  0  0  0  0
    1.8854    3.1766   -5.1366 F   0  0  0  0  0  0  0  0  0  0  0  0
    5.7780   -3.7623  -11.5233 F   0  0  0  0  0  0  0  0  0  0  0  0
    3.5162   -2.2802  -11.8361 F   0  0  0  0  0  0  0  0  0  0  0  0
    7.1890   -1.5174   -9.1442 F   0  0  0  0  0  0  0  0  0  0  0  0
    6.4739   -0.1448  -11.3765 F   0  0  0  0  0  0  0  0  0  0  0  0
    4.0347    1.6151   -9.8142 F   0  0  0  0  0  0  0  0  0  0  0  0
    3.3981   -0.4922   -8.1120 F   0  0  0  0  0  0  0  0  0  0  0  0
    1.9455   -2.2925   -6.0119 F   0  0  0  0  0  0  0  0  0  0  0  0
    4.4425   -1.2596   -5.3128 F   0  0  0  0  0  0  0  0  0  0  0  0
    5.9466    2.7118   -4.4415 F   0  0  0  0  0  0  0  0  0  0  0  0
    4.8208    4.1849   -6.4237 F   0  0  0  0  0  0  0  0  0  0  0  0
    3.0452   -5.2089   -9.7126 F   0  0  0  0  0  0  0  0  0  0  0  0
    2.5093   -2.8604   -8.4633 F   0  0  0  0  0  0  0  0  0  0  0  0
    7.0974    2.2837   -8.1224 F   0  0  0  0  0  0  0  0  0  0  0  0
    6.8235    0.1122   -6.5172 F   0  0  0  0  0  0  0  0  0  0  0  0
  1  2  1  0
  1  3  1  0
  2  7  1  0
  2 14  1  0
  2 15  1  0
  3  4  1  0
  3 16  1  0
  3 17  1  0
  4  5  1  0
  4 30  1  0
  4 31  1  0
  5  8  1  0
  5 18  1  0
  5 19  1  0
  6  7  1  0
  6  9  1  0
  6 32  1  0
  6 33  1  0
  7 22  1  0
  7 23  1  0
  8 10  1  0
  8 20  1  0
  8 21  1  0
  9 11  1  0
  9 36  1  0
  9 37  1  0
 10 12  1  0
 10 34  1  0
 10 35  1  0
 11 13  1  0
 11 28  1  0
 11 29  1  0
 12 13  1  0
 12 24  1  0
 12 25  1  0
 13 26  1  0
 13 27  1  0
M  CHG  1   1   1
M  RAD  1   1   2
M  END
$$$$

     RDKit          3D

 37 37  0  0  0  0  0  0  0  0999 V2000
    1.6483   -0.4634   -2.7161 S   0  0  0  0  0  2  0  0  0  0  0  0
    2.9410   -2.1502   -2.7582 Si  0  0  0  0  0  4  0  0  0  0  0  0
    1.4246    0.4519   -4.6338 Si  0  0  0  0  0  4  0  0  0  0  0  0
    1.6344    2.6466   -4.4015 Si  0  0  0  0  0  4  0  0  0  0  0  0
    0.8497    3.7537   -6.1771 Si  0  0  0  0  0  4  0  0  0  0  0  0
    3.9867   -3.1017   -6.1535 Si  0  0  0  0  0  4  0  0  0  0  0  0
    4.5291   -1.9927   -4.2877 Si  0  0  0  0  0  4  0  0  0  0  0  0
   -0.9579    2.8243   -7.0206 Si  0  0  0  0  0  4  0  0  0  0  0  0
    4.6254   -1.9871   -7.9752 Si  0  0  0  0  0  4  0  0  0  0  0  0
   -0.5449    1.4802   -8.7371 Si  0  0  0  0  0  4  0  0  0  0  0  0
    2.8654   -1.1985   -9.1116 Si  0  0  0  0  0  4  0  0  0  0  0  0
    1.2256    2.0256   -9.8898 Si  0  0  0  0  0  4  0  0  0  0  0  0
    3.0802    0.9828   -9.3040 Si  0  0  0  0  0  4  0  0  0  0  0  0
    2.0825   -3.5884   -3.0386 F   0  0  0  0  0  0  0  0  0  0  0  0
    3.6578   -2.3059   -1.2389 F   0  0  0  0  0  0  0  0  0  0  0  0
    2.6028   -0.0958   -5.6729 F   0  0  0  0  0  0  0  0  0  0  0  0
   -0.1104    0.0751   -5.2127 F   0  0  0  0  0  0  0  0  0  0  0  0
    2.0544    4.0004   -7.3290 F   0  0  0  0  0  0  0  0  0  0  0  0
    0.4280    5.3113   -5.6118 F   0  0  0  0  0  0  0  0  0  0  0  0
   -2.0487    4.0473   -7.4984 F   0  0  0  0  0  0  0  0  0  0  0  0
   -1.7402    1.9414   -5.8145 F   0  0  0  0  0  0  0  0  0  0  0  0
    5.9303   -2.7108   -3.6787 F   0  0  0  0  0  0  0  0  0  0  0  0
    4.9197   -0.3804   -4.6350 F   0  0  0  0  0  0  0  0  0  0  0  0
    1.4938    3.6886   -9.7970 F   0  0  0  0  0  0  0  0  0  0  0  0
    0.9435    1.6808  -11.5388 F   0  0  0  0  0  0  0  0  0  0  0  0
    4.2412    1.2829  -10.5224 F   0  0  0  0  0  0  0  0  0  0  0  0
    3.7486    1.5863   -7.8768 F   0  0  0  0  0  0  0  0  0  0  0  0
    2.8441   -1.8805  -10.6578 F   0  0  0  0  0  0  0  0  0  0  0  0
    1.4934   -1.6661   -8.2799 F   0  0  0  0  0  0  0  0  0  0  0  0
    0.7098    3.1324   -3.0589 F   0  0  0  0  0  0  0  0  0  0  0  0
    3.2513    3.0481   -4.1572 F   0  0  0  0  0  0  0  0  0  0  0  0
    4.7479   -4.6172   -6.1858 F   0  0  0  0  0  0  0  0  0  0  0  0
    2.3259   -3.3870   -6.1485 F   0  0  0  0  0  0  0  0  0  0  0  0
   -1.9086    1.5726   -9.7663 F   0  0  0  0  0  0  0  0  0  0  0  0
   -0.5295   -0.1177   -8.1769 F   0  0  0  0  0  0  0  0  0  0  0  0
    5.5563   -2.9539   -8.9911 F   0  0  0  0  0  0  0  0  0  0  0  0
    5.6310   -0.7169   -7.4569 F   0  0  0  0  0  0  0  0  0  0  0  0
  1  2  1  0
  1  3  1  0
  2  7  1  0
  2 14  1  0
  2 15  1  0
  3  4  1  0
  3 16  1  0
  3 17  1  0
  4  5  1  0
  4 30  1  0
  4 31  1  0
  5  8  1  0
  5 18  1  0
  5 19  1  0
  6  7  1  0
  6  9  1  0
  6 32  1  0
  6 33  1  0
  7 22  1  0
  7 23  1  0
  8 10  1  0
  8 20  1  0
  8 21  1  0
  9 11  1  0
  9 36  1  0
  9 37  1  0
 10 12  1  0
 10 34  1  0
 10 35  1  0
 11 13  1  0
 11 28  1  0
 11 29  1  0
 12 13  1  0
 12 24  1  0
 12 25  1  0
 13 26  1  0
 13 27  1  0
M  CHG  1   1   1
M  RAD  1   1   2
M  END
$$$$

     RDKit          3D

 37 37  0  0  0  0  0  0  0  0999 V2000
    1.6483   -0.4634   -2.7161 S   0  0  0  0  0  2  0  0  0  0  0  0
    3.2835    0.4953   -3.6564 Si  0  0  0  0  0  4  0  0  0  0  0  0
    0.1239   -1.0500   -4.1392 Si  0  0  0  0  0  4  0  0  0  0  0  0
    0.4136   -3.1681   -4.6028 Si  0  0  0  0  0  4  0  0  0  0  0  0
   -0.5734   -3.8941   -6.4158 Si  0  0  0  0  0  4  0  0  0  0  0  0
    5.4414   -0.6084   -6.4393 Si  0  0  0  0  0  4  0  0  0  0  0  0
    3.4006    0.1309   -5.8294 Si  0  0  0  0  0  4  0  0  0  0  0  0
   -1.1214   -2.3904   -7.8962 Si  0  0  0  0  0  4  0  0  0  0  0  0
    5.3901   -1.3285   -8.5323 Si  0  0  0  0  0  4  0  0  0  0  0  0
   -0.7513   -3.1978   -9.9581 Si  0  0  0  0  0  4  0  0  0  0  0  0
    3.4704   -2.3421   -9.0346 Si  0  0  0  0  0  4  0  0  0  0  0  0
    0.5089   -1.8739  -11.1725 Si  0  0  0  0  0  4  0  0  0  0  0  0
    2.1298   -0.8810  -10.0406 Si  0  0  0  0  0  4  0  0  0  0  0  0
    3.1733    2.1666   -3.3294 F   0  0  0  0  0  0  0  0  0  0  0  0
    4.7381   -0.0157   -2.9267 F   0  0  0  0  0  0  0  0  0  0  0  0
    0.1174   -0.0270   -5.4379 F   0  0  0  0  0  0  0  0  0  0  0  0
   -1.3653   -0.8668   -3.3258 F   0  0  0  0  0  0  0  0  0  0  0  0
   -1.9702   -4.7883   -6.0002 F   0  0  0  0  0  0  0  0  0  0  0  0
    0.4651   -5.0383   -7.1502 F   0  0  0  0  0  0  0  0  0  0  0  0
   -0.3297   -0.9386   -7.7721 F   0  0  0  0  0  0  0  0  0  0  0  0
   -2.7943   -2.0644   -7.7812 F   0  0  0  0  0  0  0  0  0  0  0  0
    3.1551    1.5914   -6.6417 F   0  0  0  0  0  0  0  0  0  0  0  0
    2.2946   -1.0089   -6.3274 F   0  0  0  0  0  0  0  0  0  0  0  0
   -0.3763   -0.6849  -11.9808 F   0  0  0  0  0  0  0  0  0  0  0  0
    1.2494   -2.8194  -12.3873 F   0  0  0  0  0  0  0  0  0  0  0  0
    1.5576    0.2850   -8.9713 F   0  0  0  0  0  0  0  0  0  0  0  0
    3.0855   -0.0373  -11.1805 F   0  0  0  0  0  0  0  0  0  0  0  0
    3.8350   -3.5533  -10.1821 F   0  0  0  0  0  0  0  0  0  0  0  0
    2.7673   -3.0855   -7.7287 F   0  0  0  0  0  0  0  0  0  0  0  0
   -0.1558   -4.0754   -3.2695 F   0  0  0  0  0  0  0  0  0  0  0  0
    2.0917   -3.4884   -4.6546 F   0  0  0  0  0  0  0  0  0  0  0  0
    5.8942   -1.8690   -5.4313 F   0  0  0  0  0  0  0  0  0  0  0  0
    6.5194    0.6923   -6.3383 F   0  0  0  0  0  0  0  0  0  0  0  0
   -2.2071   -3.4720  -10.7726 F   0  0  0  0  0  0  0  0  0  0  0  0
    0.0185   -4.7188   -9.8483 F   0  0  0  0  0  0  0  0  0  0  0  0
    5.5870   -0.0455   -9.6111 F   0  0  0  0  0  0  0  0  0  0  0  0
    6.6768   -2.4237   -8.7609 F   0  0  0  0  0  0  0  0  0  0  0  0
  1  2  1  0
  1  3  1  0
  2  7  1  0
  2 14  1  0
  2 15  1  0
  3  4  1  0
  3 16  1  0
  3 17  1  0
  4  5  1  0
  4 30  1  0
  4 31  1  0
  5  8  1  0
  5 18  1  0
  5 19  1  0
  6  7  1  0
  6  9  1  0
  6 32  1  0
  6 33  1  0
  7 22  1  0
  7 23  1  0
  8 10  1  0
  8 20  1  0
  8 21  1  0
  9 11  1  0
  9 36  1  0
  9 37  1  0
 10 12  1  0
 10 34  1  0
 10 35  1  0
 11 13  1  0
 11 28  1  0
 11 29  1  0
 12 13  1  0
 12 24  1  0
 12 25  1  0
 13 26  1  0
 13 27  1  0
M  CHG  1   1   1
M  RAD  1   1   2
M  END
$$$$

     RDKit          3D

 37 37  0  0  0  0  0  0  0  0999 V2000
    1.6483   -0.4634   -2.7161 S   0  0  0  0  0  2  0  0  0  0  0  0
    1.4080   -2.0827   -4.0878 Si  0  0  0  0  0  4  0  0  0  0  0  0
    1.5008    1.4117   -3.7966 Si  0  0  0  0  0  4  0  0  0  0  0  0
    3.2585    1.4751   -5.1765 Si  0  0  0  0  0  4  0  0  0  0  0  0
    3.2769    3.3693   -6.3471 Si  0  0  0  0  0  4  0  0  0  0  0  0
    3.3056   -3.6719   -6.8044 Si  0  0  0  0  0  4  0  0  0  0  0  0
    3.4104   -2.8726   -4.7597 Si  0  0  0  0  0  4  0  0  0  0  0  0
    4.8687    3.2962   -7.8879 Si  0  0  0  0  0  4  0  0  0  0  0  0
    4.3286   -2.4829   -8.3249 Si  0  0  0  0  0  4  0  0  0  0  0  0
    6.8287    2.6876   -7.0932 Si  0  0  0  0  0  4  0  0  0  0  0  0
    6.2151   -1.5452   -7.6604 Si  0  0  0  0  0  4  0  0  0  0  0  0
    8.0364    1.5304   -8.5594 Si  0  0  0  0  0  4  0  0  0  0  0  0
    6.9348   -0.2375   -9.3310 Si  0  0  0  0  0  4  0  0  0  0  0  0
    0.4641   -1.6569   -5.4168 F   0  0  0  0  0  0  0  0  0  0  0  0
    0.5534   -3.3122   -3.2677 F   0  0  0  0  0  0  0  0  0  0  0  0
    0.1039    1.3982   -4.7428 F   0  0  0  0  0  0  0  0  0  0  0  0
    1.5246    2.7075   -2.7386 F   0  0  0  0  0  0  0  0  0  0  0  0
    3.4172    4.7208   -5.3671 F   0  0  0  0  0  0  0  0  0  0  0  0
    1.7876    3.4749   -7.1552 F   0  0  0  0  0  0  0  0  0  0  0  0
    5.0111    4.8637   -8.5509 F   0  0  0  0  0  0  0  0  0  0  0  0
    4.4381    2.2823   -9.1631 F   0  0  0  0  0  0  0  0  0  0  0  0
    4.5739   -1.7077   -4.5370 F   0  0  0  0  0  0  0  0  0  0  0  0
    3.7760   -4.1609   -3.6989 F   0  0  0  0  0  0  0  0  0  0  0  0
    8.3887    2.5325   -9.8642 F   0  0  0  0  0  0  0  0  0  0  0  0
    9.4855    1.1025   -7.8239 F   0  0  0  0  0  0  0  0  0  0  0  0
    5.6344    0.3052  -10.2428 F   0  0  0  0  0  0  0  0  0  0  0  0
    7.9584   -1.0976  -10.3431 F   0  0  0  0  0  0  0  0  0  0  0  0
    7.3697   -2.7592   -7.4482 F   0  0  0  0  0  0  0  0  0  0  0  0
    6.0392   -0.5990   -6.3050 F   0  0  0  0  0  0  0  0  0  0  0  0
    4.6310    1.2841   -4.2477 F   0  0  0  0  0  0  0  0  0  0  0  0
    3.0606    0.2030   -6.2862 F   0  0  0  0  0  0  0  0  0  0  0  0
    1.6576   -3.7856   -7.2434 F   0  0  0  0  0  0  0  0  0  0  0  0
    3.8967   -5.2728   -6.8673 F   0  0  0  0  0  0  0  0  0  0  0  0
    7.7115    4.0887   -6.7084 F   0  0  0  0  0  0  0  0  0  0  0  0
    6.7161    1.7829   -5.6807 F   0  0  0  0  0  0  0  0  0  0  0  0
    4.6731   -3.4689   -9.6649 F   0  0  0  0  0  0  0  0  0  0  0  0
    3.3017   -1.2561   -8.8967 F   0  0  0  0  0  0  0  0  0  0  0  0
  1  2  1  0
  1  3  1  0
  2  7  1  0
  2 14  1  0
  2 15  1  0
  3  4  1  0
  3 16  1  0
  3 17  1  0
  4  5  1  0
  4 30  1  0
  4 31  1  0
  5  8  1  0
  5 18  1  0
  5 19  1  0
  6  7  1  0
  6  9  1  0
  6 32  1  0
  6 33  1  0
  7 22  1  0
  7 23  1  0
  8 10  1  0
  8 20  1  0
  8 21  1  0
  9 11  1  0
  9 36  1  0
  9 37  1  0
 10 12  1  0
 10 34  1  0
 10 35  1  0
 11 13  1  0
 11 28  1  0
 11 29  1  0
 12 13  1  0
 12 24  1  0
 12 25  1  0
 13 26  1  0
 13 27  1  0
M  CHG  1   1   1
M  RAD  1   1   2
M  END
$$$$

     RDKit          3D

 37 37  0  0  0  0  0  0  0  0999 V2000
    1.6483   -0.4634   -2.7161 S   0  0  0  0  0  2  0  0  0  0  0  0
    2.0189   -2.4475   -3.3825 Si  0  0  0  0  0  4  0  0  0  0  0  0
    2.0414    0.9994   -4.2232 Si  0  0  0  0  0  4  0  0  0  0  0  0
    3.2152    2.6497   -3.3213 Si  0  0  0  0  0  4  0  0  0  0  0  0
    3.1882    4.4867   -4.5935 Si  0  0  0  0  0  4  0  0  0  0  0  0
    2.8065   -2.6582   -6.9689 Si  0  0  0  0  0  4  0  0  0  0  0  0
    3.6301   -2.5734   -4.8905 Si  0  0  0  0  0  4  0  0  0  0  0  0
    1.2385    4.8166   -5.5592 Si  0  0  0  0  0  4  0  0  0  0  0  0
    4.0448   -1.4593   -8.3825 Si  0  0  0  0  0  4  0  0  0  0  0  0
    1.1377    4.0479   -7.6383 Si  0  0  0  0  0  4  0  0  0  0  0  0
    2.9529    0.3649   -9.0829 Si  0  0  0  0  0  4  0  0  0  0  0  0
    3.0551    4.0414   -8.6796 Si  0  0  0  0  0  4  0  0  0  0  0  0
    4.1625    2.1348   -8.5872 Si  0  0  0  0  0  4  0  0  0  0  0  0
    0.6239   -3.1551   -4.0440 F   0  0  0  0  0  0  0  0  0  0  0  0
    2.4459   -3.3839   -2.0457 F   0  0  0  0  0  0  0  0  0  0  0  0
    2.9229    0.3250   -5.4625 F   0  0  0  0  0  0  0  0  0  0  0  0
    0.5631    1.5786   -4.7823 F   0  0  0  0  0  0  0  0  0  0  0  0
    4.4683    4.4942   -5.6892 F   0  0  0  0  0  0  0  0  0  0  0  0
    3.4815    5.7968   -3.5347 F   0  0  0  0  0  0  0  0  0  0  0  0
    0.8793    6.4854   -5.5459 F   0  0  0  0  0  0  0  0  0  0  0  0
    0.0344    4.0691   -4.6441 F   0  0  0  0  0  0  0  0  0  0  0  0
    4.4841   -4.0081   -4.6413 F   0  0  0  0  0  0  0  0  0  0  0  0
    4.7473   -1.3084   -4.7345 F   0  0  0  0  0  0  0  0  0  0  0  0
    4.0484    5.2674   -8.0826 F   0  0  0  0  0  0  0  0  0  0  0  0
    2.7935    4.4021  -10.3286 F   0  0  0  0  0  0  0  0  0  0  0  0
    5.4344    2.2276   -9.7258 F   0  0  0  0  0  0  0  0  0  0  0  0
    4.9040    1.8793   -7.0930 F   0  0  0  0  0  0  0  0  0  0  0  0
    2.7576    0.2931  -10.7601 F   0  0  0  0  0  0  0  0  0  0  0  0
    1.4518    0.3520   -8.3485 F   0  0  0  0  0  0  0  0  0  0  0  0
    2.5025    3.0604   -1.8323 F   0  0  0  0  0  0  0  0  0  0  0  0
    4.8069    2.1578   -3.0765 F   0  0  0  0  0  0  0  0  0  0  0  0
    2.7852   -4.2573   -7.5343 F   0  0  0  0  0  0  0  0  0  0  0  0
    1.2073   -2.1275   -6.9380 F   0  0  0  0  0  0  0  0  0  0  0  0
    0.0665    5.0779   -8.4862 F   0  0  0  0  0  0  0  0  0  0  0  0
    0.3670    2.5402   -7.6170 F   0  0  0  0  0  0  0  0  0  0  0  0
    4.5129   -2.3741   -9.7157 F   0  0  0  0  0  0  0  0  0  0  0  0
    5.4713   -1.0335   -7.5598 F   0  0  0  0  0  0  0  0  0  0  0  0
  1  2  1  0
  1  3  1  0
  2  7  1  0
  2 14  1  0
  2 15  1  0
  3  4  1  0
  3 16  1  0
  3 17  1  0
  4  5  1  0
  4 30  1  0
  4 31  1  0
  5  8  1  0
  5 18  1  0
  5 19  1  0
  6  7  1  0
  6  9  1  0
  6 32  1  0
  6 33  1  0
  7 22  1  0
  7 23  1  0
  8 10  1  0
  8 20  1  0
  8 21  1  0
  9 11  1  0
  9 36  1  0
  9 37  1  0
 10 12  1  0
 10 34  1  0
 10 35  1  0
 11 13  1  0
 11 28  1  0
 11 29  1  0
 12 13  1  0
 12 24  1  0
 12 25  1  0
 13 26  1  0
 13 27  1  0
M  CHG  1   1   1
M  RAD  1   1   2
M  END
$$$$

     RDKit          3D

 37 37  0  0  0  0  0  0  0  0999 V2000
    1.6483   -0.4634   -2.7161 S   0  0  0  0  0  2  0  0  0  0  0  0
    1.9816   -2.3343   -3.6907 Si  0  0  0  0  0  4  0  0  0  0  0  0
    0.9395    0.9804   -4.1716 Si  0  0  0  0  0  4  0  0  0  0  0  0
    2.6246    1.2969   -5.6061 Si  0  0  0  0  0  4  0  0  0  0  0  0
    2.0696    2.7915   -7.1607 Si  0  0  0  0  0  4  0  0  0  0  0  0
    4.3696   -3.7903   -6.0749 Si  0  0  0  0  0  4  0  0  0  0  0  0
    4.1508   -2.5705   -4.2597 Si  0  0  0  0  0  4  0  0  0  0  0  0
    3.6462    2.8938   -8.7153 Si  0  0  0  0  0  4  0  0  0  0  0  0
    5.0023   -2.7018   -7.8602 Si  0  0  0  0  0  4  0  0  0  0  0  0
    5.6731    3.1336   -7.8918 Si  0  0  0  0  0  4  0  0  0  0  0  0
    6.4673   -1.0888   -7.4971 Si  0  0  0  0  0  4  0  0  0  0  0  0
    7.2317    2.1302   -9.1212 Si  0  0  0  0  0  4  0  0  0  0  0  0
    6.7793   -0.0208   -9.4416 Si  0  0  0  0  0  4  0  0  0  0  0  0
    0.9914   -2.5354   -5.0390 F   0  0  0  0  0  0  0  0  0  0  0  0
    1.5425   -3.5603   -2.5869 F   0  0  0  0  0  0  0  0  0  0  0  0
   -0.3500    0.3138   -5.0315 F   0  0  0  0  0  0  0  0  0  0  0  0
    0.5145    2.4150   -3.4230 F   0  0  0  0  0  0  0  0  0  0  0  0
    1.7393    4.2975   -6.5054 F   0  0  0  0  0  0  0  0  0  0  0  0
    0.6501    2.2355   -7.9079 F   0  0  0  0  0  0  0  0  0  0  0  0
    3.2981    4.2384   -9.7091 F   0  0  0  0  0  0  0  0  0  0  0  0
    3.6023    1.5414   -9.7195 F   0  0  0  0  0  0  0  0  0  0  0  0
    4.8719   -1.0762   -4.3460 F   0  0  0  0  0  0  0  0  0  0  0  0
    4.8783   -3.4081   -2.9605 F   0  0  0  0  0  0  0  0  0  0  0  0
    7.2830    2.8796  -10.6268 F   0  0  0  0  0  0  0  0  0  0  0  0
    8.7187    2.3604   -8.3730 F   0  0  0  0  0  0  0  0  0  0  0  0
    5.4016   -0.1364  -10.3931 F   0  0  0  0  0  0  0  0  0  0  0  0
    8.0547   -0.7092  -10.2850 F   0  0  0  0  0  0  0  0  0  0  0  0
    7.9434   -1.7924   -7.0753 F   0  0  0  0  0  0  0  0  0  0  0  0
    5.9564    0.0251   -6.3740 F   0  0  0  0  0  0  0  0  0  0  0  0
    3.9573    1.7634   -4.7177 F   0  0  0  0  0  0  0  0  0  0  0  0
    2.8789   -0.1829   -6.4028 F   0  0  0  0  0  0  0  0  0  0  0  0
    2.8593   -4.5180   -6.4077 F   0  0  0  0  0  0  0  0  0  0  0  0
    5.4447   -5.0910   -5.8131 F   0  0  0  0  0  0  0  0  0  0  0  0
    6.0477    4.7915   -7.8594 F   0  0  0  0  0  0  0  0  0  0  0  0
    5.8142    2.5742   -6.3127 F   0  0  0  0  0  0  0  0  0  0  0  0
    5.6850   -3.7952   -8.9668 F   0  0  0  0  0  0  0  0  0  0  0  0
    3.6538   -2.0246   -8.6409 F   0  0  0  0  0  0  0  0  0  0  0  0
  1  2  1  0
  1  3  1  0
  2  7  1  0
  2 14  1  0
  2 15  1  0
  3  4  1  0
  3 16  1  0
  3 17  1  0
  4  5  1  0
  4 30  1  0
  4 31  1  0
  5  8  1  0
  5 18  1  0
  5 19  1  0
  6  7  1  0
  6  9  1  0
  6 32  1  0
  6 33  1  0
  7 22  1  0
  7 23  1  0
  8 10  1  0
  8 20  1  0
  8 21  1  0
  9 11  1  0
  9 36  1  0
  9 37  1  0
 10 12  1  0
 10 34  1  0
 10 35  1  0
 11 13  1  0
 11 28  1  0
 11 29  1  0
 12 13  1  0
 12 24  1  0
 12 25  1  0
 13 26  1  0
 13 27  1  0
M  CHG  1   1   1
M  RAD  1   1   2
M  END
$$$$

     RDKit          3D

 37 37  0  0  0  0  0  0  0  0999 V2000
    1.6483   -0.4634   -2.7161 S   0  0  0  0  0  2  0  0  0  0  0  0
    1.1792   -1.8755   -4.2482 Si  0  0  0  0  0  4  0  0  0  0  0  0
    1.8002    1.5143   -3.5941 Si  0  0  0  0  0  4  0  0  0  0  0  0
    3.5622    1.4518   -4.9685 Si  0  0  0  0  0  4  0  0  0  0  0  0
    3.8820    3.4323   -5.9349 Si  0  0  0  0  0  4  0  0  0  0  0  0
    2.8424   -3.4445   -7.1255 Si  0  0  0  0  0  4  0  0  0  0  0  0
    3.0451   -2.8876   -5.0090 Si  0  0  0  0  0  4  0  0  0  0  0  0
    5.4609    3.2777   -7.4828 Si  0  0  0  0  0  4  0  0  0  0  0  0
    4.0514   -2.2740   -8.5185 Si  0  0  0  0  0  4  0  0  0  0  0  0
    7.2964    2.2976   -6.7658 Si  0  0  0  0  0  4  0  0  0  0  0  0
    6.0513   -1.7096   -7.7691 Si  0  0  0  0  0  4  0  0  0  0  0  0
    8.3298    1.1284   -8.3509 Si  0  0  0  0  0  4  0  0  0  0  0  0
    6.9802   -0.3606   -9.2975 Si  0  0  0  0  0  4  0  0  0  0  0  0
    0.3260   -1.1746   -5.5208 F   0  0  0  0  0  0  0  0  0  0  0  0
    0.1383   -3.0386   -3.5569 F   0  0  0  0  0  0  0  0  0  0  0  0
    0.4281    1.8128   -4.5295 F   0  0  0  0  0  0  0  0  0  0  0  0
    2.0095    2.6741   -2.4065 F   0  0  0  0  0  0  0  0  0  0  0  0
    4.2157    4.6372   -4.8198 F   0  0  0  0  0  0  0  0  0  0  0  0
    2.4351    3.8476   -6.7201 F   0  0  0  0  0  0  0  0  0  0  0  0
    5.8479    4.8654   -7.9791 F   0  0  0  0  0  0  0  0  0  0  0  0
    4.8950    2.4796   -8.8548 F   0  0  0  0  0  0  0  0  0  0  0  0
    4.3701   -1.9436   -4.6717 F   0  0  0  0  0  0  0  0  0  0  0  0
    3.1984   -4.3200   -4.0904 F   0  0  0  0  0  0  0  0  0  0  0  0
    8.8451    2.1951   -9.5457 F   0  0  0  0  0  0  0  0  0  0  0  0
    9.6886    0.4101   -7.6714 F   0  0  0  0  0  0  0  0  0  0  0  0
    5.7879    0.4661  -10.1411 F   0  0  0  0  0  0  0  0  0  0  0  0
    7.8719   -1.2570  -10.3990 F   0  0  0  0  0  0  0  0  0  0  0  0
    7.0050   -3.1011   -7.6906 F   0  0  0  0  0  0  0  0  0  0  0  0
    6.0066   -0.8939   -6.3214 F   0  0  0  0  0  0  0  0  0  0  0  0
    4.8792    0.9578   -4.0717 F   0  0  0  0  0  0  0  0  0  0  0  0
    3.1850    0.3471   -6.2041 F   0  0  0  0  0  0  0  0  0  0  0  0
    1.2013   -3.2590   -7.5658 F   0  0  0  0  0  0  0  0  0  0  0  0
    3.1833   -5.1015   -7.3583 F   0  0  0  0  0  0  0  0  0  0  0  0
    8.3781    3.4997   -6.2411 F   0  0  0  0  0  0  0  0  0  0  0  0
    7.0316    1.2788   -5.4550 F   0  0  0  0  0  0  0  0  0  0  0  0
    4.2564   -3.1563   -9.9559 F   0  0  0  0  0  0  0  0  0  0  0  0
    3.2298   -0.8520   -8.9539 F   0  0  0  0  0  0  0  0  0  0  0  0
  1  2  1  0
  1  3  1  0
  2  7  1  0
  2 14  1  0
  2 15  1  0
  3  4  1  0
  3 16  1  0
  3 17  1  0
  4  5  1  0
  4 30  1  0
  4 31  1  0
  5  8  1  0
  5 18  1  0
  5 19  1  0
  6  7  1  0
  6  9  1  0
  6 32  1  0
  6 33  1  0
  7 22  1  0
  7 23  1  0
  8 10  1  0
  8 20  1  0
  8 21  1  0
  9 11  1  0
  9 36  1  0
  9 37  1  0
 10 12  1  0
 10 34  1  0
 10 35  1  0
 11 13  1  0
 11 28  1  0
 11 29  1  0
 12 13  1  0
 12 24  1  0
 12 25  1  0
 13 26  1  0
 13 27  1  0
M  CHG  1   1   1
M  RAD  1   1   2
M  END
$$$$

     RDKit          3D

 37 37  0  0  0  0  0  0  0  0999 V2000
    1.6483   -0.4634   -2.7161 S   0  0  0  0  0  2  0  0  0  0  0  0
    2.8117    1.2625   -3.1949 Si  0  0  0  0  0  4  0  0  0  0  0  0
    2.9273   -2.2150   -2.7497 Si  0  0  0  0  0  4  0  0  0  0  0  0
    3.5929   -2.4594   -4.8698 Si  0  0  0  0  0  4  0  0  0  0  0  0
    4.8991   -4.2498   -5.0872 Si  0  0  0  0  0  4  0  0  0  0  0  0
    4.4699    2.7148   -6.1356 Si  0  0  0  0  0  4  0  0  0  0  0  0
    2.6319    1.7727   -5.3840 Si  0  0  0  0  0  4  0  0  0  0  0  0
    5.7563   -4.3228   -7.1300 Si  0  0  0  0  0  4  0  0  0  0  0  0
    5.6607    1.4857   -7.4934 Si  0  0  0  0  0  4  0  0  0  0  0  0
    4.2526   -4.0836   -8.7192 Si  0  0  0  0  0  4  0  0  0  0  0  0
    4.4890    0.2216   -8.8752 Si  0  0  0  0  0  4  0  0  0  0  0  0
    5.0467   -3.0332  -10.5118 Si  0  0  0  0  0  4  0  0  0  0  0  0
    5.9406   -1.0667   -9.9940 Si  0  0  0  0  0  4  0  0  0  0  0  0
    4.4296    1.0803   -2.7613 F   0  0  0  0  0  0  0  0  0  0  0  0
    2.2062    2.5523   -2.2547 F   0  0  0  0  0  0  0  0  0  0  0  0
    4.2977   -1.9192   -1.8109 F   0  0  0  0  0  0  0  0  0  0  0  0
    2.0926   -3.5670   -2.2258 F   0  0  0  0  0  0  0  0  0  0  0  0
    4.1023   -5.6696   -4.6926 F   0  0  0  0  0  0  0  0  0  0  0  0
    6.1883   -4.0662   -3.9980 F   0  0  0  0  0  0  0  0  0  0  0  0
    6.5086   -5.8449   -7.3149 F   0  0  0  0  0  0  0  0  0  0  0  0
    6.9700   -3.1703   -7.3245 F   0  0  0  0  0  0  0  0  0  0  0  0
    2.1531    0.4278   -6.2338 F   0  0  0  0  0  0  0  0  0  0  0  0
    1.3642    2.9134   -5.4876 F   0  0  0  0  0  0  0  0  0  0  0  0
    6.2524   -3.9877  -11.1947 F   0  0  0  0  0  0  0  0  0  0  0  0
    3.8005   -2.8881  -11.6298 F   0  0  0  0  0  0  0  0  0  0  0  0
    7.3115   -1.3364   -9.0641 F   0  0  0  0  0  0  0  0  0  0  0  0
    6.4142   -0.3111  -11.4140 F   0  0  0  0  0  0  0  0  0  0  0  0
    3.7382    1.2228  -10.0090 F   0  0  0  0  0  0  0  0  0  0  0  0
    3.4073   -0.7747   -8.1001 F   0  0  0  0  0  0  0  0  0  0  0  0
    2.2228   -2.5487   -5.8174 F   0  0  0  0  0  0  0  0  0  0  0  0
    4.5399   -1.1000   -5.2494 F   0  0  0  0  0  0  0  0  0  0  0  0
    5.4466    3.1144   -4.7911 F   0  0  0  0  0  0  0  0  0  0  0  0
    4.1274    4.2040   -6.8980 F   0  0  0  0  0  0  0  0  0  0  0  0
    3.7511   -5.6282   -9.2219 F   0  0  0  0  0  0  0  0  0  0  0  0
    2.8739   -3.2698   -8.2060 F   0  0  0  0  0  0  0  0  0  0  0  0
    6.6636    2.4938   -8.4230 F   0  0  0  0  0  0  0  0  0  0  0  0
    6.7014    0.4762   -6.6079 F   0  0  0  0  0  0  0  0  0  0  0  0
  1  2  1  0
  1  3  1  0
  2  7  1  0
  2 14  1  0
  2 15  1  0
  3  4  1  0
  3 16  1  0
  3 17  1  0
  4  5  1  0
  4 30  1  0
  4 31  1  0
  5  8  1  0
  5 18  1  0
  5 19  1  0
  6  7  1  0
  6  9  1  0
  6 32  1  0
  6 33  1  0
  7 22  1  0
  7 23  1  0
  8 10  1  0
  8 20  1  0
  8 21  1  0
  9 11  1  0
  9 36  1  0
  9 37  1  0
 10 12  1  0
 10 34  1  0
 10 35  1  0
 11 13  1  0
 11 28  1  0
 11 29  1  0
 12 13  1  0
 12 24  1  0
 12 25  1  0
 13 26  1  0
 13 27  1  0
M  CHG  1   1   1
M  RAD  1   1   2
M  END
$$$$
