
     RDKit          3D

 37 37  0  0  0  0  0  0  0  0999 V2000
    0.0435   -0.0263    3.2437 S   0  0  0  0  0  2  0  0  0  0  0  0
    1.5321    0.9038    4.4230 Si  0  0  0  0  0  4  0  0  0  0  0  0
   -0.7671   -1.7841    4.1688 Si  0  0  0  0  0  4  0  0  0  0  0  0
    0.8415   -3.1708    4.8456 Si  0  0  0  0  0  4  0  0  0  0  0  0
    0.9912   -3.1823    7.0850 Si  0  0  0  0  0  4  0  0  0  0  0  0
    1.4108    2.0833    7.8878 Si  0  0  0  0  0  4  0  0  0  0  0  0
    0.6923    2.4503    5.8002 Si  0  0  0  0  0  4  0  0  0  0  0  0
    2.8718   -4.1252    7.7614 Si  0  0  0  0  0  4  0  0  0  0  0  0
   -0.2830    1.4542    9.1515 Si  0  0  0  0  0  4  0  0  0  0  0  0
    4.0562   -2.7456    9.0916 Si  0  0  0  0  0  4  0  0  0  0  0  0
    0.2151    0.0448   10.7499 Si  0  0  0  0  0  4  0  0  0  0  0  0
    3.0100   -2.3321   10.9827 Si  0  0  0  0  0  4  0  0  0  0  0  0
    2.3635   -0.1978   11.1723 Si  0  0  0  0  0  4  0  0  0  0  0  0
    2.3020   -0.2972    5.3604 F   0  0  0  0  0  0  0  0  0  0  0  0
    2.7430    1.5768    3.4475 F   0  0  0  0  0  0  0  0  0  0  0  0
   -1.7537   -1.3626    5.4693 F   0  0  0  0  0  0  0  0  0  0  0  0
   -1.7314   -2.5657    3.0260 F   0  0  0  0  0  0  0  0  0  0  0  0
    0.8226   -1.6134    7.6138 F   0  0  0  0  0  0  0  0  0  0  0  0
   -0.3145   -4.1134    7.6519 F   0  0  0  0  0  0  0  0  0  0  0  0
    2.6051   -5.6014    8.5362 F   0  0  0  0  0  0  0  0  0  0  0  0
    3.8361   -4.4350    6.4101 F   0  0  0  0  0  0  0  0  0  0  0  0
   -1.0053    2.2846    5.7450 F   0  0  0  0  0  0  0  0  0  0  0  0
    1.0888    4.0053    5.2770 F   0  0  0  0  0  0  0  0  0  0  0  0
    3.9878   -2.8028   12.2734 F   0  0  0  0  0  0  0  0  0  0  0  0
    1.5935   -3.2789   11.0872 F   0  0  0  0  0  0  0  0  0  0  0  0
    2.6486    0.2299   12.7962 F   0  0  0  0  0  0  0  0  0  0  0  0
    3.3430    0.8197   10.2652 F   0  0  0  0  0  0  0  0  0  0  0  0
   -0.4136   -1.4972   10.3595 F   0  0  0  0  0  0  0  0  0  0  0  0
   -0.6326    0.5034   12.1525 F   0  0  0  0  0  0  0  0  0  0  0  0
    2.3007   -2.7021    4.1529 F   0  0  0  0  0  0  0  0  0  0  0  0
    0.4800   -4.7430    4.3480 F   0  0  0  0  0  0  0  0  0  0  0  0
    2.0376    3.5589    8.4681 F   0  0  0  0  0  0  0  0  0  0  0  0
    2.6526    0.9981    7.8176 F   0  0  0  0  0  0  0  0  0  0  0  0
    4.4266   -1.3892    8.2054 F   0  0  0  0  0  0  0  0  0  0  0  0
    5.5302   -3.5583    9.3865 F   0  0  0  0  0  0  0  0  0  0  0  0
   -0.9741    2.8802    9.7955 F   0  0  0  0  0  0  0  0  0  0  0  0
   -1.4744    0.7982    8.1492 F   0  0  0  0  0  0  0  0  0  0  0  0
  1  2  1  0
  1  3  1  0
  2  7  1  0
  2 14  1  0
  2 15  1  0
  3  4  1  0
  3 16  1  0
  3 17  1  0
  4  5  1  0
  4 30  1  0
  4 31  1  0
  5  8  1  0
  5 18  1  0
  5 19  1  0
  6  7  1  0
  6  9  1  0
  6 32  1  0
  6 33  1  0
  7 22  1  0
  7 23  1  0
  8 10  1  0
  8 20  1  0
  8 21  1  0
  9 11  1  0
  9 36  1  0
  9 37  1  0
 10 12  1  0
 10 34  1  0
 10 35  1  0
 11 13  1  0
 11 28  1  0
 11 29  1  0
 12 13  1  0
 12 24  1  0
 12 25  1  0
 13 26  1  0
 13 27  1  0
M  CHG  1   1   1
M  RAD  1   1   2
M  END
$$$$

     RDKit          3D

 37 37  0  0  0  0  0  0  0  0999 V2000
    0.0435   -0.0263    3.2437 S   0  0  0  0  0  2  0  0  0  0  0  0
   -1.4584   -1.2627    4.1075 Si  0  0  0  0  0  4  0  0  0  0  0  0
    1.4873    0.6501    4.6253 Si  0  0  0  0  0  4  0  0  0  0  0  0
    1.4910    2.8773    4.6714 Si  0  0  0  0  0  4  0  0  0  0  0  0
   -0.5927    3.6873    4.3890 Si  0  0  0  0  0  4  0  0  0  0  0  0
   -1.0057   -2.2883    7.6221 Si  0  0  0  0  0  4  0  0  0  0  0  0
   -0.6319   -2.7664    5.4996 Si  0  0  0  0  0  4  0  0  0  0  0  0
   -1.0693    5.1215    5.9964 Si  0  0  0  0  0  4  0  0  0  0  0  0
   -1.8619   -0.3037    7.9625 Si  0  0  0  0  0  4  0  0  0  0  0  0
   -2.1482    4.2005    7.6955 Si  0  0  0  0  0  4  0  0  0  0  0  0
   -4.1013   -0.3604    8.1945 Si  0  0  0  0  0  4  0  0  0  0  0  0
   -3.9893    3.1509    7.0713 Si  0  0  0  0  0  4  0  0  0  0  0  0
   -4.7066    1.7530    8.6502 Si  0  0  0  0  0  4  0  0  0  0  0  0
   -2.2082   -2.1056    2.8247 F   0  0  0  0  0  0  0  0  0  0  0  0
   -2.6787   -0.3504    4.8331 F   0  0  0  0  0  0  0  0  0  0  0  0
    3.0271    0.1593    4.0739 F   0  0  0  0  0  0  0  0  0  0  0  0
    1.3034   -0.0091    6.1608 F   0  0  0  0  0  0  0  0  0  0  0  0
   -1.6867    2.4331    4.2643 F   0  0  0  0  0  0  0  0  0  0  0  0
   -0.6320    4.5324    2.9058 F   0  0  0  0  0  0  0  0  0  0  0  0
    0.3939    5.7488    6.5964 F   0  0  0  0  0  0  0  0  0  0  0  0
   -1.9350    6.4623    5.3986 F   0  0  0  0  0  0  0  0  0  0  0  0
    1.0379   -2.9123    5.1775 F   0  0  0  0  0  0  0  0  0  0  0  0
   -1.2878   -4.3117    5.1868 F   0  0  0  0  0  0  0  0  0  0  0  0
   -3.8258    2.3043    5.6464 F   0  0  0  0  0  0  0  0  0  0  0  0
   -5.2005    4.3274    6.8236 F   0  0  0  0  0  0  0  0  0  0  0  0
   -4.0155    2.1406   10.1501 F   0  0  0  0  0  0  0  0  0  0  0  0
   -6.3786    1.8693    8.8307 F   0  0  0  0  0  0  0  0  0  0  0  0
   -4.8457   -0.9399    6.8233 F   0  0  0  0  0  0  0  0  0  0  0  0
   -4.5371   -1.3255    9.4938 F   0  0  0  0  0  0  0  0  0  0  0  0
    2.4942    3.4091    3.4083 F   0  0  0  0  0  0  0  0  0  0  0  0
    2.1686    3.4718    6.1022 F   0  0  0  0  0  0  0  0  0  0  0  0
    0.4830   -2.3905    8.4508 F   0  0  0  0  0  0  0  0  0  0  0  0
   -2.0124   -3.4551    8.3541 F   0  0  0  0  0  0  0  0  0  0  0  0
   -1.0949    3.1967    8.5522 F   0  0  0  0  0  0  0  0  0  0  0  0
   -2.5939    5.4498    8.7594 F   0  0  0  0  0  0  0  0  0  0  0  0
   -1.2607    0.3061    9.4388 F   0  0  0  0  0  0  0  0  0  0  0  0
   -1.5146    0.8111    6.7822 F   0  0  0  0  0  0  0  0  0  0  0  0
  1  2  1  0
  1  3  1  0
  2  7  1  0
  2 14  1  0
  2 15  1  0
  3  4  1  0
  3 16  1  0
  3 17  1  0
  4  5  1  0
  4 30  1  0
  4 31  1  0
  5  8  1  0
  5 18  1  0
  5 19  1  0
  6  7  1  0
  6  9  1  0
  6 32  1  0
  6 33  1  0
  7 22  1  0
  7 23  1  0
  8 10  1  0
  8 20  1  0
  8 21  1  0
  9 11  1  0
  9 36  1  0
  9 37  1  0
 10 12  1  0
 10 34  1  0
 10 35  1  0
 11 13  1  0
 11 28  1  0
 11 29  1  0
 12 13  1  0
 12 24  1  0
 12 25  1  0
 13 26  1  0
 13 27  1  0
M  CHG  1   1   1
M  RAD  1   1   2
M  END
$$$$

     RDKit          3D

 37 37  0  0  0  0  0  0  0  0999 V2000
    0.0435   -0.0263    3.2437 S   0  0  0  0  0  2  0  0  0  0  0  0
   -1.2935   -1.1273    4.4571 Si  0  0  0  0  0  4  0  0  0  0  0  0
    0.6498    1.8228    4.1468 Si  0  0  0  0  0  4  0  0  0  0  0  0
   -1.1034    3.0036    4.8547 Si  0  0  0  0  0  4  0  0  0  0  0  0
   -1.2060    3.0078    7.0968 Si  0  0  0  0  0  4  0  0  0  0  0  0
   -0.9542   -2.2651    7.9213 Si  0  0  0  0  0  4  0  0  0  0  0  0
   -0.2400   -2.5511    5.8196 Si  0  0  0  0  0  4  0  0  0  0  0  0
   -3.1742    3.7145    7.8113 Si  0  0  0  0  0  4  0  0  0  0  0  0
    0.6750   -1.4251    9.1467 Si  0  0  0  0  0  4  0  0  0  0  0  0
   -4.1506    2.2058    9.1700 Si  0  0  0  0  0  4  0  0  0  0  0  0
    0.0402   -0.0799   10.7520 Si  0  0  0  0  0  4  0  0  0  0  0  0
   -3.0217    1.9345   11.0392 Si  0  0  0  0  0  4  0  0  0  0  0  0
   -2.1123   -0.1026   11.2200 Si  0  0  0  0  0  4  0  0  0  0  0  0
   -2.1861   -0.0259    5.4079 F   0  0  0  0  0  0  0  0  0  0  0  0
   -2.4322   -1.9497    3.5095 F   0  0  0  0  0  0  0  0  0  0  0  0
    1.7081    1.5331    5.4268 F   0  0  0  0  0  0  0  0  0  0  0  0
    1.4857    2.7118    2.9816 F   0  0  0  0  0  0  0  0  0  0  0  0
   -0.8336    1.4744    7.6257 F   0  0  0  0  0  0  0  0  0  0  0  0
   -0.0139    4.0960    7.6332 F   0  0  0  0  0  0  0  0  0  0  0  0
   -3.0758    5.2162    8.5765 F   0  0  0  0  0  0  0  0  0  0  0  0
   -4.1976    3.8959    6.4803 F   0  0  0  0  0  0  0  0  0  0  0  0
    1.4225   -2.1771    5.7275 F   0  0  0  0  0  0  0  0  0  0  0  0
   -0.4522   -4.1459    5.3089 F   0  0  0  0  0  0  0  0  0  0  0  0
   -4.0228    2.2873   12.3494 F   0  0  0  0  0  0  0  0  0  0  0  0
   -1.7313    3.0496   11.1109 F   0  0  0  0  0  0  0  0  0  0  0  0
   -2.3080   -0.5540   12.8507 F   0  0  0  0  0  0  0  0  0  0  0  0
   -2.9774   -1.2379   10.3367 F   0  0  0  0  0  0  0  0  0  0  0  0
    0.4650    1.5259   10.3444 F   0  0  0  0  0  0  0  0  0  0  0  0
    0.9674   -0.4232   12.1371 F   0  0  0  0  0  0  0  0  0  0  0  0
   -2.5077    2.3546    4.1948 F   0  0  0  0  0  0  0  0  0  0  0  0
   -0.9496    4.6058    4.3457 F   0  0  0  0  0  0  0  0  0  0  0  0
   -1.3814   -3.8039    8.5186 F   0  0  0  0  0  0  0  0  0  0  0  0
   -2.3219   -1.3421    7.8752 F   0  0  0  0  0  0  0  0  0  0  0  0
   -4.3690    0.8096    8.2953 F   0  0  0  0  0  0  0  0  0  0  0  0
   -5.7072    2.8317    9.4946 F   0  0  0  0  0  0  0  0  0  0  0  0
    1.5506   -2.7515    9.7791 F   0  0  0  0  0  0  0  0  0  0  0  0
    1.7547   -0.6320    8.1174 F   0  0  0  0  0  0  0  0  0  0  0  0
  1  2  1  0
  1  3  1  0
  2  7  1  0
  2 14  1  0
  2 15  1  0
  3  4  1  0
  3 16  1  0
  3 17  1  0
  4  5  1  0
  4 30  1  0
  4 31  1  0
  5  8  1  0
  5 18  1  0
  5 19  1  0
  6  7  1  0
  6  9  1  0
  6 32  1  0
  6 33  1  0
  7 22  1  0
  7 23  1  0
  8 10  1  0
  8 20  1  0
  8 21  1  0
  9 11  1  0
  9 36  1  0
  9 37  1  0
 10 12  1  0
 10 34  1  0
 10 35  1  0
 11 13  1  0
 11 28  1  0
 11 29  1  0
 12 13  1  0
 12 24  1  0
 12 25  1  0
 13 26  1  0
 13 27  1  0
M  CHG  1   1   1
M  RAD  1   1   2
M  END
$$$$

     RDKit          3D

 37 37  0  0  0  0  0  0  0  0999 V2000
    0.0435   -0.0263    3.2437 S   0  0  0  0  0  2  0  0  0  0  0  0
   -1.6179   -1.0372    4.1087 Si  0  0  0  0  0  4  0  0  0  0  0  0
    1.5680    0.4418    4.6249 Si  0  0  0  0  0  4  0  0  0  0  0  0
    1.8857    2.6463    4.6676 Si  0  0  0  0  0  4  0  0  0  0  0  0
   -0.0628    3.7416    4.3833 Si  0  0  0  0  0  4  0  0  0  0  0  0
   -1.3149   -2.1111    7.6251 Si  0  0  0  0  0  4  0  0  0  0  0  0
   -1.0119   -2.6403    5.5034 Si  0  0  0  0  0  4  0  0  0  0  0  0
   -0.3326    5.2312    5.9883 Si  0  0  0  0  0  4  0  0  0  0  0  0
   -1.8827   -0.0250    7.9622 Si  0  0  0  0  0  4  0  0  0  0  0  0
   -1.5309    4.4741    7.6884 Si  0  0  0  0  0  4  0  0  0  0  0  0
   -4.1078    0.2350    8.1934 Si  0  0  0  0  0  4  0  0  0  0  0  0
   -3.5016    3.6937    7.0651 Si  0  0  0  0  0  4  0  0  0  0  0  0
   -4.4090    2.4133    8.6457 Si  0  0  0  0  0  4  0  0  0  0  0  0
   -2.4788   -1.7679    2.8270 F   0  0  0  0  0  0  0  0  0  0  0  0
   -2.6975    0.0392    4.8326 F   0  0  0  0  0  0  0  0  0  0  0  0
    3.0233   -0.2620    4.0747 F   0  0  0  0  0  0  0  0  0  0  0  0
    1.2928   -0.1825    6.1613 F   0  0  0  0  0  0  0  0  0  0  0  0
   -1.3228    2.6541    4.2600 F   0  0  0  0  0  0  0  0  0  0  0  0
    0.0177    4.5816    2.8988 F   0  0  0  0  0  0  0  0  0  0  0  0
    1.2043    5.6467    6.5879 F   0  0  0  0  0  0  0  0  0  0  0  0
   -1.0005    6.6798    5.3882 F   0  0  0  0  0  0  0  0  0  0  0  0
    0.6206   -3.0207    5.1821 F   0  0  0  0  0  0  0  0  0  0  0  0
   -1.8791   -4.0782    5.1927 F   0  0  0  0  0  0  0  0  0  0  0  0
   -3.4588    2.8303    5.6415 F   0  0  0  0  0  0  0  0  0  0  0  0
   -4.5347    5.0289    6.8152 F   0  0  0  0  0  0  0  0  0  0  0  0
   -3.6705    2.7019   10.1453 F   0  0  0  0  0  0  0  0  0  0  0  0
   -6.0480    2.7645    8.8255 F   0  0  0  0  0  0  0  0  0  0  0  0
   -4.9263   -0.2358    6.8228 F   0  0  0  0  0  0  0  0  0  0  0  0
   -4.6756   -0.6570    9.4940 F   0  0  0  0  0  0  0  0  0  0  0  0
    2.9542    3.0294    3.4041 F   0  0  0  0  0  0  0  0  0  0  0  0
    2.6403    3.1415    6.0978 F   0  0  0  0  0  0  0  0  0  0  0  0
    0.1444   -2.4209    8.4545 F   0  0  0  0  0  0  0  0  0  0  0  0
   -2.4762   -3.1231    8.3584 F   0  0  0  0  0  0  0  0  0  0  0  0
   -0.6299    3.3331    8.5470 F   0  0  0  0  0  0  0  0  0  0  0  0
   -1.7962    5.7754    8.7503 F   0  0  0  0  0  0  0  0  0  0  0  0
   -1.2018    0.4962    9.4378 F   0  0  0  0  0  0  0  0  0  0  0  0
   -1.3815    1.0279    6.7803 F   0  0  0  0  0  0  0  0  0  0  0  0
  1  2  1  0
  1  3  1  0
  2  7  1  0
  2 14  1  0
  2 15  1  0
  3  4  1  0
  3 16  1  0
  3 17  1  0
  4  5  1  0
  4 30  1  0
  4 31  1  0
  5  8  1  0
  5 18  1  0
  5 19  1  0
  6  7  1  0
  6  9  1  0
  6 32  1  0
  6 33  1  0
  7 22  1  0
  7 23  1  0
  8 10  1  0
  8 20  1  0
  8 21  1  0
  9 11  1  0
  9 36  1  0
  9 37  1  0
 10 12  1  0
 10 34  1  0
 10 35  1  0
 11 13  1  0
 11 28  1  0
 11 29  1  0
 12 13  1  0
 12 24  1  0
 12 25  1  0
 13 26  1  0
 13 27  1  0
M  CHG  1   1   1
M  RAD  1   1   2
M  END
$$$$

     RDKit          3D

 37 37  0  0  0  0  0  0  0  0999 V2000
    0.0435   -0.0263    3.2437 S   0  0  0  0  0  2  0  0  0  0  0  0
    1.1790    1.3096    4.4261 Si  0  0  0  0  0  4  0  0  0  0  0  0
   -0.1916   -1.9504    4.1629 Si  0  0  0  0  0  4  0  0  0  0  0  0
    1.7640   -2.7829    4.8350 Si  0  0  0  0  0  4  0  0  0  0  0  0
    1.9124   -2.7553    7.0743 Si  0  0  0  0  0  4  0  0  0  0  0  0
    0.7075    2.3849    7.8948 Si  0  0  0  0  0  4  0  0  0  0  0  0
   -0.0909    2.5221    5.8084 Si  0  0  0  0  0  4  0  0  0  0  0  0
    3.9917   -3.0821    7.7475 Si  0  0  0  0  0  4  0  0  0  0  0  0
   -0.7125    1.2654    9.1565 Si  0  0  0  0  0  4  0  0  0  0  0  0
    4.7005   -1.4112    9.0822 Si  0  0  0  0  0  4  0  0  0  0  0  0
    0.1934    0.0699   10.7501 Si  0  0  0  0  0  4  0  0  0  0  0  0
    3.5802   -1.3425   10.9748 Si  0  0  0  0  0  4  0  0  0  0  0  0
    2.3139    0.4925   11.1716 Si  0  0  0  0  0  4  0  0  0  0  0  0
    2.2793    0.3975    5.3593 F   0  0  0  0  0  0  0  0  0  0  0  0
    2.1260    2.3228    3.4527 F   0  0  0  0  0  0  0  0  0  0  0  0
   -1.2583   -1.8540    5.4649 F   0  0  0  0  0  0  0  0  0  0  0  0
   -0.8729   -2.9852    3.0176 F   0  0  0  0  0  0  0  0  0  0  0  0
    1.2741   -1.3141    7.6084 F   0  0  0  0  0  0  0  0  0  0  0  0
    0.9534   -4.0419    7.6382 F   0  0  0  0  0  0  0  0  0  0  0  0
    4.1886   -4.5717    8.5173 F   0  0  0  0  0  0  0  0  0  0  0  0
    5.0031   -3.0788    6.3951 F   0  0  0  0  0  0  0  0  0  0  0  0
   -1.6572    1.8468    5.7528 F   0  0  0  0  0  0  0  0  0  0  0  0
   -0.1879    4.1256    5.2905 F   0  0  0  0  0  0  0  0  0  0  0  0
    4.6563   -1.4967   12.2638 F   0  0  0  0  0  0  0  0  0  0  0  0
    2.5199   -2.6763   11.0762 F   0  0  0  0  0  0  0  0  0  0  0  0
    2.4568    0.9816   12.7968 F   0  0  0  0  0  0  0  0  0  0  0  0
    2.9356    1.7631   10.2678 F   0  0  0  0  0  0  0  0  0  0  0  0
    0.0643   -1.5891   10.3546 F   0  0  0  0  0  0  0  0  0  0  0  0
   -0.7522    0.2439   12.1543 F   0  0  0  0  0  0  0  0  0  0  0  0
    3.0101   -1.8894    4.1438 F   0  0  0  0  0  0  0  0  0  0  0  0
    1.8984   -4.3888    4.3322 F   0  0  0  0  0  0  0  0  0  0  0  0
    0.8553    3.9795    8.4799 F   0  0  0  0  0  0  0  0  0  0  0  0
    2.2210    1.7303    7.8208 F   0  0  0  0  0  0  0  0  0  0  0  0
    4.6388   -0.0038    8.2005 F   0  0  0  0  0  0  0  0  0  0  0  0
    6.3524   -1.7368    9.3742 F   0  0  0  0  0  0  0  0  0  0  0  0
   -1.8047    2.4108    9.8053 F   0  0  0  0  0  0  0  0  0  0  0  0
   -1.6481    0.2806    8.1521 F   0  0  0  0  0  0  0  0  0  0  0  0
  1  2  1  0
  1  3  1  0
  2  7  1  0
  2 14  1  0
  2 15  1  0
  3  4  1  0
  3 16  1  0
  3 17  1  0
  4  5  1  0
  4 30  1  0
  4 31  1  0
  5  8  1  0
  5 18  1  0
  5 19  1  0
  6  7  1  0
  6  9  1  0
  6 32  1  0
  6 33  1  0
  7 22  1  0
  7 23  1  0
  8 10  1  0
  8 20  1  0
  8 21  1  0
  9 11  1  0
  9 36  1  0
  9 37  1  0
 10 12  1  0
 10 34  1  0
 10 35  1  0
 11 13  1  0
 11 28  1  0
 11 29  1  0
 12 13  1  0
 12 24  1  0
 12 25  1  0
 13 26  1  0
 13 27  1  0
M  CHG  1   1   1
M  RAD  1   1   2
M  END
$$$$

     RDKit          3D

 37 37  0  0  0  0  0  0  0  0999 V2000
    0.0435   -0.0263    3.2437 S   0  0  0  0  0  2  0  0  0  0  0  0
   -1.4276   -0.9390    4.4582 Si  0  0  0  0  0  4  0  0  0  0  0  0
    0.8889    1.7276    4.1444 Si  0  0  0  0  0  4  0  0  0  0  0  0
   -0.6927    3.1309    4.8501 Si  0  0  0  0  0  4  0  0  0  0  0  0
   -0.7943    3.1520    7.0921 Si  0  0  0  0  0  4  0  0  0  0  0  0
   -1.2423   -2.1067    7.9241 Si  0  0  0  0  0  4  0  0  0  0  0  0
   -0.5719   -2.4878    5.8230 Si  0  0  0  0  0  4  0  0  0  0  0  0
   -2.6518    4.1138    7.8049 Si  0  0  0  0  0  4  0  0  0  0  0  0
    0.4835   -1.4879    9.1489 Si  0  0  0  0  0  4  0  0  0  0  0  0
   -3.8194    2.7495    9.1655 Si  0  0  0  0  0  4  0  0  0  0  0  0
    0.0319   -0.0683   10.7521 Si  0  0  0  0  0  4  0  0  0  0  0  0
   -2.7366    2.3339   11.0354 Si  0  0  0  0  0  4  0  0  0  0  0  0
   -2.1047    0.1947   11.2194 Si  0  0  0  0  0  4  0  0  0  0  0  0
   -2.1667    0.2721    5.4071 F   0  0  0  0  0  0  0  0  0  0  0  0
   -2.6649   -1.6049    3.5113 F   0  0  0  0  0  0  0  0  0  0  0  0
    1.8994    1.3023    5.4252 F   0  0  0  0  0  0  0  0  0  0  0  0
    1.8353    2.4966    2.9783 F   0  0  0  0  0  0  0  0  0  0  0  0
   -0.6281    1.5836    7.6233 F   0  0  0  0  0  0  0  0  0  0  0  0
    0.5312    4.0736    7.6274 F   0  0  0  0  0  0  0  0  0  0  0  0
   -2.3557    5.5904    8.5681 F   0  0  0  0  0  0  0  0  0  0  0  0
   -3.6420    4.4270    6.4734 F   0  0  0  0  0  0  0  0  0  0  0  0
    1.1254   -2.3371    5.7310 F   0  0  0  0  0  0  0  0  0  0  0  0
   -0.9931   -4.0412    5.3145 F   0  0  0  0  0  0  0  0  0  0  0  0
   -3.6824    2.8179   12.3448 F   0  0  0  0  0  0  0  0  0  0  0  0
   -1.3100    3.2686   11.1059 F   0  0  0  0  0  0  0  0  0  0  0  0
   -2.3587   -0.2245   12.8506 F   0  0  0  0  0  0  0  0  0  0  0  0
   -3.1122   -0.8175   10.3374 F   0  0  0  0  0  0  0  0  0  0  0  0
    0.6655    1.4667   10.3424 F   0  0  0  0  0  0  0  0  0  0  0  0
    0.9054   -0.5292   12.1380 F   0  0  0  0  0  0  0  0  0  0  0  0
   -2.1705    2.6725    4.1906 F   0  0  0  0  0  0  0  0  0  0  0  0
   -0.3283    4.6980    4.3389 F   0  0  0  0  0  0  0  0  0  0  0  0
   -1.8694   -3.5746    8.5233 F   0  0  0  0  0  0  0  0  0  0  0  0
   -2.4759   -1.0110    7.8762 F   0  0  0  0  0  0  0  0  0  0  0  0
   -4.2204    1.3932    8.2926 F   0  0  0  0  0  0  0  0  0  0  0  0
   -5.2796    3.5762    9.4886 F   0  0  0  0  0  0  0  0  0  0  0  0
    1.1758   -2.9176    9.7835 F   0  0  0  0  0  0  0  0  0  0  0  0
    1.6588   -0.8460    8.1188 F   0  0  0  0  0  0  0  0  0  0  0  0
  1  2  1  0
  1  3  1  0
  2  7  1  0
  2 14  1  0
  2 15  1  0
  3  4  1  0
  3 16  1  0
  3 17  1  0
  4  5  1  0
  4 30  1  0
  4 31  1  0
  5  8  1  0
  5 18  1  0
  5 19  1  0
  6  7  1  0
  6  9  1  0
  6 32  1  0
  6 33  1  0
  7 22  1  0
  7 23  1  0
  8 10  1  0
  8 20  1  0
  8 21  1  0
  9 11  1  0
  9 36  1  0
  9 37  1  0
 10 12  1  0
 10 34  1  0
 10 35  1  0
 11 13  1  0
 11 28  1  0
 11 29  1  0
 12 13  1  0
 12 24  1  0
 12 25  1  0
 13 26  1  0
 13 27  1  0
M  CHG  1   1   1
M  RAD  1   1   2
M  END
$$$$
