
     RDKit          3D

 37 37  0  0  0  0  0  0  0  0999 V2000
   -0.2127   -0.7408    2.7726 S   0  0  0  0  0  2  0  0  0  0  0  0
   -0.1898    0.5998    4.4347 Si  0  0  0  0  0  4  0  0  0  0  0  0
   -0.8381   -2.6994    3.3085 Si  0  0  0  0  0  4  0  0  0  0  0  0
   -0.1403   -3.2494    5.3782 Si  0  0  0  0  0  4  0  0  0  0  0  0
   -1.5791   -4.6755    6.2353 Si  0  0  0  0  0  4  0  0  0  0  0  0
    1.9718    1.0309    7.3924 Si  0  0  0  0  0  4  0  0  0  0  0  0
    1.9003    0.7394    5.1937 Si  0  0  0  0  0  4  0  0  0  0  0  0
   -1.6804   -4.6343    8.4362 Si  0  0  0  0  0  4  0  0  0  0  0  0
    3.4180   -0.3732    8.2828 Si  0  0  0  0  0  4  0  0  0  0  0  0
   -1.8876   -2.6183    9.2871 Si  0  0  0  0  0  4  0  0  0  0  0  0
    2.4579   -1.9818    9.4652 Si  0  0  0  0  0  4  0  0  0  0  0  0
   -0.6869   -2.5012   11.1722 Si  0  0  0  0  0  4  0  0  0  0  0  0
    1.0455   -1.1145   10.9282 Si  0  0  0  0  0  4  0  0  0  0  0  0
   -1.2794    0.1808    5.6230 F   0  0  0  0  0  0  0  0  0  0  0  0
   -0.6455    2.1360    3.8474 F   0  0  0  0  0  0  0  0  0  0  0  0
   -2.5412   -2.7501    3.3583 F   0  0  0  0  0  0  0  0  0  0  0  0
   -0.2349   -3.8629    2.2482 F   0  0  0  0  0  0  0  0  0  0  0  0
   -3.1099   -4.4235    5.5369 F   0  0  0  0  0  0  0  0  0  0  0  0
   -1.1064   -6.2440    5.7583 F   0  0  0  0  0  0  0  0  0  0  0  0
   -0.2811   -5.3774    9.0701 F   0  0  0  0  0  0  0  0  0  0  0  0
   -2.9826   -5.5976    8.9299 F   0  0  0  0  0  0  0  0  0  0  0  0
    2.7102   -0.6911    4.7822 F   0  0  0  0  0  0  0  0  0  0  0  0
    2.6723    1.9924    4.3749 F   0  0  0  0  0  0  0  0  0  0  0  0
   -0.0582   -4.0255   11.5700 F   0  0  0  0  0  0  0  0  0  0  0  0
   -1.6091   -1.9474   12.4622 F   0  0  0  0  0  0  0  0  0  0  0  0
    0.5495    0.4377   10.5198 F   0  0  0  0  0  0  0  0  0  0  0  0
    1.8258   -1.0145   12.4247 F   0  0  0  0  0  0  0  0  0  0  0  0
    1.6976   -3.1262    8.4813 F   0  0  0  0  0  0  0  0  0  0  0  0
    3.6967   -2.8206   10.2890 F   0  0  0  0  0  0  0  0  0  0  0  0
    1.3790   -4.0084    5.2102 F   0  0  0  0  0  0  0  0  0  0  0  0
    0.0853   -1.8757    6.2819 F   0  0  0  0  0  0  0  0  0  0  0  0
    2.5074    2.6234    7.6823 F   0  0  0  0  0  0  0  0  0  0  0  0
    0.4337    0.9042    8.0153 F   0  0  0  0  0  0  0  0  0  0  0  0
   -1.4880   -1.3896    8.2288 F   0  0  0  0  0  0  0  0  0  0  0  0
   -3.5187   -2.3794    9.7319 F   0  0  0  0  0  0  0  0  0  0  0  0
    4.3566   -1.0936    7.0687 F   0  0  0  0  0  0  0  0  0  0  0  0
    4.5080    0.4437    9.3057 F   0  0  0  0  0  0  0  0  0  0  0  0
  1  2  1  0
  1  3  1  0
  2  7  1  0
  2 14  1  0
  2 15  1  0
  3  4  1  0
  3 16  1  0
  3 17  1  0
  4  5  1  0
  4 30  1  0
  4 31  1  0
  5  8  1  0
  5 18  1  0
  5 19  1  0
  6  7  1  0
  6  9  1  0
  6 32  1  0
  6 33  1  0
  7 22  1  0
  7 23  1  0
  8 10  1  0
  8 20  1  0
  8 21  1  0
  9 11  1  0
  9 36  1  0
  9 37  1  0
 10 12  1  0
 10 34  1  0
 10 35  1  0
 11 13  1  0
 11 28  1  0
 11 29  1  0
 12 13  1  0
 12 24  1  0
 12 25  1  0
 13 26  1  0
 13 27  1  0
M  CHG  1   1   1
M  RAD  1   1   2
M  END
$$$$

     RDKit          3D

 37 37  0  0  0  0  0  0  0  0999 V2000
   -0.2127   -0.7408    2.7726 S   0  0  0  0  0  2  0  0  0  0  0  0
   -1.5117   -2.3360    3.1709 Si  0  0  0  0  0  4  0  0  0  0  0  0
    0.0683    0.6462    4.3372 Si  0  0  0  0  0  4  0  0  0  0  0  0
   -1.7672    1.8136    4.8056 Si  0  0  0  0  0  4  0  0  0  0  0  0
   -1.6839    2.7224    6.8418 Si  0  0  0  0  0  4  0  0  0  0  0  0
   -3.5190   -2.7138    6.2108 Si  0  0  0  0  0  4  0  0  0  0  0  0
   -1.5213   -3.0768    5.2355 Si  0  0  0  0  0  4  0  0  0  0  0  0
   -3.5910    2.4136    7.9183 Si  0  0  0  0  0  4  0  0  0  0  0  0
   -3.8953   -4.1231    7.8546 Si  0  0  0  0  0  4  0  0  0  0  0  0
   -3.3480    1.1835    9.7726 Si  0  0  0  0  0  4  0  0  0  0  0  0
   -3.9031   -3.1239    9.8600 Si  0  0  0  0  0  4  0  0  0  0  0  0
   -1.6487   -0.1753    9.6881 Si  0  0  0  0  0  4  0  0  0  0  0  0
   -1.9908   -2.2245   10.3819 Si  0  0  0  0  0  4  0  0  0  0  0  0
   -1.1282   -3.6104    2.0994 F   0  0  0  0  0  0  0  0  0  0  0  0
   -3.1012   -1.8680    2.7581 F   0  0  0  0  0  0  0  0  0  0  0  0
    1.2470    1.7559    3.8483 F   0  0  0  0  0  0  0  0  0  0  0  0
    0.6898   -0.1452    5.6780 F   0  0  0  0  0  0  0  0  0  0  0  0
   -0.3524    2.1687    7.7123 F   0  0  0  0  0  0  0  0  0  0  0  0
   -1.4566    4.3946    6.6723 F   0  0  0  0  0  0  0  0  0  0  0  0
   -4.3107    3.8892    8.3715 F   0  0  0  0  0  0  0  0  0  0  0  0
   -4.7082    1.6721    6.8651 F   0  0  0  0  0  0  0  0  0  0  0  0
   -0.2764   -2.4520    6.1745 F   0  0  0  0  0  0  0  0  0  0  0  0
   -1.3236   -4.7632    5.2459 F   0  0  0  0  0  0  0  0  0  0  0  0
   -0.3460    0.4688   10.5898 F   0  0  0  0  0  0  0  0  0  0  0  0
   -1.0950   -0.2411    8.0914 F   0  0  0  0  0  0  0  0  0  0  0  0
   -1.7827   -2.2717   12.0744 F   0  0  0  0  0  0  0  0  0  0  0  0
   -0.7452   -3.2115    9.7568 F   0  0  0  0  0  0  0  0  0  0  0  0
   -5.2127   -2.0969    9.9224 F   0  0  0  0  0  0  0  0  0  0  0  0
   -4.2201   -4.3711   10.9861 F   0  0  0  0  0  0  0  0  0  0  0  0
   -1.8796    3.0399    3.6271 F   0  0  0  0  0  0  0  0  0  0  0  0
   -3.1540    0.8653    4.6066 F   0  0  0  0  0  0  0  0  0  0  0  0
   -3.6376   -1.1446    6.7806 F   0  0  0  0  0  0  0  0  0  0  0  0
   -4.6825   -2.9054    4.9994 F   0  0  0  0  0  0  0  0  0  0  0  0
   -4.8297    0.4218   10.0290 F   0  0  0  0  0  0  0  0  0  0  0  0
   -3.1405    2.2698   11.0744 F   0  0  0  0  0  0  0  0  0  0  0  0
   -5.4152   -4.8287    7.6537 F   0  0  0  0  0  0  0  0  0  0  0  0
   -2.7666   -5.3967    7.8738 F   0  0  0  0  0  0  0  0  0  0  0  0
  1  2  1  0
  1  3  1  0
  2  7  1  0
  2 14  1  0
  2 15  1  0
  3  4  1  0
  3 16  1  0
  3 17  1  0
  4  5  1  0
  4 30  1  0
  4 31  1  0
  5  8  1  0
  5 18  1  0
  5 19  1  0
  6  7  1  0
  6  9  1  0
  6 32  1  0
  6 33  1  0
  7 22  1  0
  7 23  1  0
  8 10  1  0
  8 20  1  0
  8 21  1  0
  9 11  1  0
  9 36  1  0
  9 37  1  0
 10 12  1  0
 10 34  1  0
 10 35  1  0
 11 13  1  0
 11 28  1  0
 11 29  1  0
 12 13  1  0
 12 24  1  0
 12 25  1  0
 13 26  1  0
 13 27  1  0
M  CHG  1   1   1
M  RAD  1   1   2
M  END
$$$$

     RDKit          3D

 37 37  0  0  0  0  0  0  0  0999 V2000
   -0.2127   -0.7408    2.7726 S   0  0  0  0  0  2  0  0  0  0  0  0
   -1.4303   -2.3975    3.1774 Si  0  0  0  0  0  4  0  0  0  0  0  0
   -0.0151    0.6732    4.3257 Si  0  0  0  0  0  4  0  0  0  0  0  0
   -1.9118    1.7481    4.7707 Si  0  0  0  0  0  4  0  0  0  0  0  0
   -1.8903    2.6787    6.7987 Si  0  0  0  0  0  4  0  0  0  0  0  0
   -3.4370   -2.8509    6.2074 Si  0  0  0  0  0  4  0  0  0  0  0  0
   -1.4162   -3.1188    5.2489 Si  0  0  0  0  0  4  0  0  0  0  0  0
   -3.7864    2.2814    7.8653 Si  0  0  0  0  0  4  0  0  0  0  0  0
   -3.7516   -4.2626    7.8620 Si  0  0  0  0  0  4  0  0  0  0  0  0
   -3.4934    1.0827    9.7329 Si  0  0  0  0  0  4  0  0  0  0  0  0
   -3.8254   -3.2467    9.8576 Si  0  0  0  0  0  4  0  0  0  0  0  0
   -1.7255   -0.1870    9.6727 Si  0  0  0  0  0  4  0  0  0  0  0  0
   -1.9660   -2.2447   10.3837 Si  0  0  0  0  0  4  0  0  0  0  0  0
   -0.9736   -3.6600    2.1208 F   0  0  0  0  0  0  0  0  0  0  0  0
   -3.0388   -2.0162    2.7496 F   0  0  0  0  0  0  0  0  0  0  0  0
    1.1081    1.8380    3.8341 F   0  0  0  0  0  0  0  0  0  0  0  0
    0.6370   -0.0726    5.6781 F   0  0  0  0  0  0  0  0  0  0  0  0
   -0.5382    2.2028    7.6833 F   0  0  0  0  0  0  0  0  0  0  0  0
   -1.7486    4.3588    6.6148 F   0  0  0  0  0  0  0  0  0  0  0  0
   -4.5848    3.7218    8.2996 F   0  0  0  0  0  0  0  0  0  0  0  0
   -4.8562    1.4734    6.8118 F   0  0  0  0  0  0  0  0  0  0  0  0
   -0.2121   -2.4217    6.1902 F   0  0  0  0  0  0  0  0  0  0  0  0
   -1.1316   -4.7925    5.2768 F   0  0  0  0  0  0  0  0  0  0  0  0
   -0.4644    0.5320   10.5768 F   0  0  0  0  0  0  0  0  0  0  0  0
   -1.1577   -0.2387    8.0804 F   0  0  0  0  0  0  0  0  0  0  0  0
   -1.7678   -2.2655   12.0779 F   0  0  0  0  0  0  0  0  0  0  0  0
   -0.6666   -3.1715    9.7764 F   0  0  0  0  0  0  0  0  0  0  0  0
   -5.1869   -2.2885    9.9015 F   0  0  0  0  0  0  0  0  0  0  0  0
   -4.0855   -4.4983   10.9934 F   0  0  0  0  0  0  0  0  0  0  0  0
   -2.0791    2.9561    3.5798 F   0  0  0  0  0  0  0  0  0  0  0  0
   -3.2462    0.7275    4.5715 F   0  0  0  0  0  0  0  0  0  0  0  0
   -3.6407   -1.2847    6.7613 F   0  0  0  0  0  0  0  0  0  0  0  0
   -4.5803   -3.1136    4.9901 F   0  0  0  0  0  0  0  0  0  0  0  0
   -4.9355    0.2476    9.9866 F   0  0  0  0  0  0  0  0  0  0  0  0
   -3.3517    2.1901   11.0256 F   0  0  0  0  0  0  0  0  0  0  0  0
   -5.2314   -5.0478    7.6577 F   0  0  0  0  0  0  0  0  0  0  0  0
   -2.5586   -5.4757    7.9008 F   0  0  0  0  0  0  0  0  0  0  0  0
  1  2  1  0
  1  3  1  0
  2  7  1  0
  2 14  1  0
  2 15  1  0
  3  4  1  0
  3 16  1  0
  3 17  1  0
  4  5  1  0
  4 30  1  0
  4 31  1  0
  5  8  1  0
  5 18  1  0
  5 19  1  0
  6  7  1  0
  6  9  1  0
  6 32  1  0
  6 33  1  0
  7 22  1  0
  7 23  1  0
  8 10  1  0
  8 20  1  0
  8 21  1  0
  9 11  1  0
  9 36  1  0
  9 37  1  0
 10 12  1  0
 10 34  1  0
 10 35  1  0
 11 13  1  0
 11 28  1  0
 11 29  1  0
 12 13  1  0
 12 24  1  0
 12 25  1  0
 13 26  1  0
 13 27  1  0
M  CHG  1   1   1
M  RAD  1   1   2
M  END
$$$$

     RDKit          3D

 37 37  0  0  0  0  0  0  0  0999 V2000
   -0.2127   -0.7408    2.7726 S   0  0  0  0  0  2  0  0  0  0  0  0
   -1.4888   -2.0778    3.8424 Si  0  0  0  0  0  4  0  0  0  0  0  0
    0.9788    0.4594    4.0587 Si  0  0  0  0  0  4  0  0  0  0  0  0
   -0.1275    0.9927    5.9467 Si  0  0  0  0  0  4  0  0  0  0  0  0
    1.3463    1.2637    7.5570 Si  0  0  0  0  0  4  0  0  0  0  0  0
   -4.5596   -1.6878    5.8485 Si  0  0  0  0  0  4  0  0  0  0  0  0
   -3.5185   -1.1663    3.9596 Si  0  0  0  0  0  4  0  0  0  0  0  0
    0.5573    0.8545    9.5734 Si  0  0  0  0  0  4  0  0  0  0  0  0
   -5.4168    0.1298    6.7525 Si  0  0  0  0  0  4  0  0  0  0  0  0
   -0.5307   -1.0478    9.7420 Si  0  0  0  0  0  4  0  0  0  0  0  0
   -4.3681    0.7647    8.5975 Si  0  0  0  0  0  4  0  0  0  0  0  0
   -2.2740   -0.7653   11.1169 Si  0  0  0  0  0  4  0  0  0  0  0  0
   -4.2017   -0.9330   10.0036 Si  0  0  0  0  0  4  0  0  0  0  0  0
   -0.8844   -2.4971    5.3370 F   0  0  0  0  0  0  0  0  0  0  0  0
   -1.6019   -3.5098    2.9209 F   0  0  0  0  0  0  0  0  0  0  0  0
    2.3453   -0.4326    4.5511 F   0  0  0  0  0  0  0  0  0  0  0  0
    1.4400    1.9032    3.3206 F   0  0  0  0  0  0  0  0  0  0  0  0
    2.7254    0.3241    7.2256 F   0  0  0  0  0  0  0  0  0  0  0  0
    1.8722    2.8863    7.5155 F   0  0  0  0  0  0  0  0  0  0  0  0
   -0.4663    2.1378   10.0397 F   0  0  0  0  0  0  0  0  0  0  0  0
    1.8501    0.8703   10.6671 F   0  0  0  0  0  0  0  0  0  0  0  0
   -3.3510    0.5163    3.8474 F   0  0  0  0  0  0  0  0  0  0  0  0
   -4.3942   -1.6626    2.6093 F   0  0  0  0  0  0  0  0  0  0  0  0
   -2.2316    0.7786   11.8182 F   0  0  0  0  0  0  0  0  0  0  0  0
   -2.2891   -1.9122   12.3439 F   0  0  0  0  0  0  0  0  0  0  0  0
   -4.3591   -2.4262    9.2500 F   0  0  0  0  0  0  0  0  0  0  0  0
   -5.4506   -0.8087   11.1364 F   0  0  0  0  0  0  0  0  0  0  0  0
   -2.8544    1.4398    8.2676 F   0  0  0  0  0  0  0  0  0  0  0  0
   -5.2928    2.0122    9.3085 F   0  0  0  0  0  0  0  0  0  0  0  0
   -0.9298    2.4710    5.6575 F   0  0  0  0  0  0  0  0  0  0  0  0
   -1.2876   -0.1511    6.2638 F   0  0  0  0  0  0  0  0  0  0  0  0
   -5.8308   -2.7545    5.4568 F   0  0  0  0  0  0  0  0  0  0  0  0
   -3.5119   -2.5106    6.8461 F   0  0  0  0  0  0  0  0  0  0  0  0
   -1.0048   -1.6918    8.2758 F   0  0  0  0  0  0  0  0  0  0  0  0
    0.4926   -2.1974   10.4815 F   0  0  0  0  0  0  0  0  0  0  0  0
   -5.3678    1.4123    5.6448 F   0  0  0  0  0  0  0  0  0  0  0  0
   -7.0591   -0.1008    7.1415 F   0  0  0  0  0  0  0  0  0  0  0  0
  1  2  1  0
  1  3  1  0
  2  7  1  0
  2 14  1  0
  2 15  1  0
  3  4  1  0
  3 16  1  0
  3 17  1  0
  4  5  1  0
  4 30  1  0
  4 31  1  0
  5  8  1  0
  5 18  1  0
  5 19  1  0
  6  7  1  0
  6  9  1  0
  6 32  1  0
  6 33  1  0
  7 22  1  0
  7 23  1  0
  8 10  1  0
  8 20  1  0
  8 21  1  0
  9 11  1  0
  9 36  1  0
  9 37  1  0
 10 12  1  0
 10 34  1  0
 10 35  1  0
 11 13  1  0
 11 28  1  0
 11 29  1  0
 12 13  1  0
 12 24  1  0
 12 25  1  0
 13 26  1  0
 13 27  1  0
M  CHG  1   1   1
M  RAD  1   1   2
M  END
$$$$

     RDKit          3D

 37 37  0  0  0  0  0  0  0  0999 V2000
   -0.2127   -0.7408    2.7726 S   0  0  0  0  0  2  0  0  0  0  0  0
   -1.4163   -2.4073    3.1786 Si  0  0  0  0  0  4  0  0  0  0  0  0
   -0.0292    0.6773    4.3237 Si  0  0  0  0  0  4  0  0  0  0  0  0
   -1.9356    1.7364    4.7648 Si  0  0  0  0  0  4  0  0  0  0  0  0
   -1.9245    2.6703    6.7914 Si  0  0  0  0  0  4  0  0  0  0  0  0
   -3.4226   -2.8733    6.2070 Si  0  0  0  0  0  4  0  0  0  0  0  0
   -1.3984   -3.1253    5.2513 Si  0  0  0  0  0  4  0  0  0  0  0  0
   -3.8184    2.2583    7.8564 Si  0  0  0  0  0  4  0  0  0  0  0  0
   -3.7269   -4.2851    7.8634 Si  0  0  0  0  0  4  0  0  0  0  0  0
   -3.5172    1.0651    9.7262 Si  0  0  0  0  0  4  0  0  0  0  0  0
   -3.8118   -3.2668    9.8574 Si  0  0  0  0  0  4  0  0  0  0  0  0
   -1.7382   -0.1894    9.6701 Si  0  0  0  0  0  4  0  0  0  0  0  0
   -1.9618   -2.2479   10.3840 Si  0  0  0  0  0  4  0  0  0  0  0  0
   -0.9475   -3.6675    2.1245 F   0  0  0  0  0  0  0  0  0  0  0  0
   -3.0276   -2.0407    2.7483 F   0  0  0  0  0  0  0  0  0  0  0  0
    1.0845    1.8510    3.8316 F   0  0  0  0  0  0  0  0  0  0  0  0
    0.6278   -0.0607    5.6781 F   0  0  0  0  0  0  0  0  0  0  0  0
   -0.5694    2.2076    7.6783 F   0  0  0  0  0  0  0  0  0  0  0  0
   -1.7972    4.3513    6.6050 F   0  0  0  0  0  0  0  0  0  0  0  0
   -4.6297    3.6924    8.2876 F   0  0  0  0  0  0  0  0  0  0  0  0
   -4.8799    1.4393    6.8030 F   0  0  0  0  0  0  0  0  0  0  0  0
   -0.2015   -2.4163    6.1928 F   0  0  0  0  0  0  0  0  0  0  0  0
   -1.0994   -4.7964    5.2821 F   0  0  0  0  0  0  0  0  0  0  0  0
   -0.4845    0.5419   10.5745 F   0  0  0  0  0  0  0  0  0  0  0  0
   -1.1682   -0.2386    8.0785 F   0  0  0  0  0  0  0  0  0  0  0  0
   -1.7654   -2.2644   12.0785 F   0  0  0  0  0  0  0  0  0  0  0  0
   -0.6536   -3.1644    9.7797 F   0  0  0  0  0  0  0  0  0  0  0  0
   -5.1816   -2.3204    9.8982 F   0  0  0  0  0  0  0  0  0  0  0  0
   -4.0624   -4.5189   10.9949 F   0  0  0  0  0  0  0  0  0  0  0  0
   -2.1120    2.9411    3.5718 F   0  0  0  0  0  0  0  0  0  0  0  0
   -3.2609    0.7040    4.5657 F   0  0  0  0  0  0  0  0  0  0  0  0
   -3.6405   -1.3082    6.7582 F   0  0  0  0  0  0  0  0  0  0  0  0
   -4.5622   -3.1479    4.9888 F   0  0  0  0  0  0  0  0  0  0  0  0
   -4.9522    0.2179    9.9796 F   0  0  0  0  0  0  0  0  0  0  0  0
   -3.3866    2.1757   11.0173 F   0  0  0  0  0  0  0  0  0  0  0  0
   -5.1996   -5.0835    7.6587 F   0  0  0  0  0  0  0  0  0  0  0  0
   -2.5235   -5.4879    7.9056 F   0  0  0  0  0  0  0  0  0  0  0  0
  1  2  1  0
  1  3  1  0
  2  7  1  0
  2 14  1  0
  2 15  1  0
  3  4  1  0
  3 16  1  0
  3 17  1  0
  4  5  1  0
  4 30  1  0
  4 31  1  0
  5  8  1  0
  5 18  1  0
  5 19  1  0
  6  7  1  0
  6  9  1  0
  6 32  1  0
  6 33  1  0
  7 22  1  0
  7 23  1  0
  8 10  1  0
  8 20  1  0
  8 21  1  0
  9 11  1  0
  9 36  1  0
  9 37  1  0
 10 12  1  0
 10 34  1  0
 10 35  1  0
 11 13  1  0
 11 28  1  0
 11 29  1  0
 12 13  1  0
 12 24  1  0
 12 25  1  0
 13 26  1  0
 13 27  1  0
M  CHG  1   1   1
M  RAD  1   1   2
M  END
$$$$

     RDKit          3D

 37 37  0  0  0  0  0  0  0  0999 V2000
   -0.2127   -0.7408    2.7726 S   0  0  0  0  0  2  0  0  0  0  0  0
    0.0396    1.0087    3.8978 Si  0  0  0  0  0  4  0  0  0  0  0  0
   -0.2352   -2.5512    3.8555 Si  0  0  0  0  0  4  0  0  0  0  0  0
    1.7261   -3.0305    4.7907 Si  0  0  0  0  0  4  0  0  0  0  0  0
    1.5216   -4.4999    6.4575 Si  0  0  0  0  0  4  0  0  0  0  0  0
    0.7336    1.1239    7.4920 Si  0  0  0  0  0  4  0  0  0  0  0  0
   -0.8556    1.0025    5.9004 Si  0  0  0  0  0  4  0  0  0  0  0  0
    2.6967   -3.8591    8.2180 Si  0  0  0  0  0  4  0  0  0  0  0  0
   -0.0460    1.9709    9.3640 Si  0  0  0  0  0  4  0  0  0  0  0  0
    1.4196   -3.4667   10.0141 Si  0  0  0  0  0  4  0  0  0  0  0  0
   -0.1235    0.4666   11.0226 Si  0  0  0  0  0  4  0  0  0  0  0  0
   -0.6196   -2.8915    9.5117 Si  0  0  0  0  0  4  0  0  0  0  0  0
   -1.4651   -1.1982   10.6139 Si  0  0  0  0  0  4  0  0  0  0  0  0
   -0.5811    2.3157    2.9893 F   0  0  0  0  0  0  0  0  0  0  0  0
    1.7100    1.3265    4.0544 F   0  0  0  0  0  0  0  0  0  0  0  0
   -0.5855   -3.8039    2.7748 F   0  0  0  0  0  0  0  0  0  0  0  0
   -1.4899   -2.5197    4.9669 F   0  0  0  0  0  0  0  0  0  0  0  0
   -0.0950   -4.7919    6.8299 F   0  0  0  0  0  0  0  0  0  0  0  0
    2.1475   -5.9883    5.9382 F   0  0  0  0  0  0  0  0  0  0  0  0
    3.8622   -5.0196    8.6603 F   0  0  0  0  0  0  0  0  0  0  0  0
    3.5842   -2.4608    7.8130 F   0  0  0  0  0  0  0  0  0  0  0  0
   -1.8738   -0.3058    6.1721 F   0  0  0  0  0  0  0  0  0  0  0  0
   -1.8037    2.3947    6.1145 F   0  0  0  0  0  0  0  0  0  0  0  0
   -1.6674   -4.2263    9.7242 F   0  0  0  0  0  0  0  0  0  0  0  0
   -0.6833   -2.5345    7.8597 F   0  0  0  0  0  0  0  0  0  0  0  0
   -2.1228   -1.7720   12.0796 F   0  0  0  0  0  0  0  0  0  0  0  0
   -2.8025   -0.6056    9.7326 F   0  0  0  0  0  0  0  0  0  0  0  0
    1.4394    0.0418   11.4107 F   0  0  0  0  0  0  0  0  0  0  0  0
   -0.7377    1.3146   12.3746 F   0  0  0  0  0  0  0  0  0  0  0  0
    2.7075   -3.6830    3.5592 F   0  0  0  0  0  0  0  0  0  0  0  0
    2.5135   -1.6223    5.2994 F   0  0  0  0  0  0  0  0  0  0  0  0
    1.4031   -0.3800    7.7941 F   0  0  0  0  0  0  0  0  0  0  0  0
    1.9571    2.1106    6.8694 F   0  0  0  0  0  0  0  0  0  0  0  0
    2.2495   -2.3301   10.9417 F   0  0  0  0  0  0  0  0  0  0  0  0
    1.3918   -4.9041   10.9364 F   0  0  0  0  0  0  0  0  0  0  0  0
    0.9664    3.2181    9.8816 F   0  0  0  0  0  0  0  0  0  0  0  0
   -1.5921    2.6524    9.1604 F   0  0  0  0  0  0  0  0  0  0  0  0
  1  2  1  0
  1  3  1  0
  2  7  1  0
  2 14  1  0
  2 15  1  0
  3  4  1  0
  3 16  1  0
  3 17  1  0
  4  5  1  0
  4 30  1  0
  4 31  1  0
  5  8  1  0
  5 18  1  0
  5 19  1  0
  6  7  1  0
  6  9  1  0
  6 32  1  0
  6 33  1  0
  7 22  1  0
  7 23  1  0
  8 10  1  0
  8 20  1  0
  8 21  1  0
  9 11  1  0
  9 36  1  0
  9 37  1  0
 10 12  1  0
 10 34  1  0
 10 35  1  0
 11 13  1  0
 11 28  1  0
 11 29  1  0
 12 13  1  0
 12 24  1  0
 12 25  1  0
 13 26  1  0
 13 27  1  0
M  CHG  1   1   1
M  RAD  1   1   2
M  END
$$$$

     RDKit          3D

 37 37  0  0  0  0  0  0  0  0999 V2000
   -0.2127   -0.7408    2.7726 S   0  0  0  0  0  2  0  0  0  0  0  0
   -1.9733   -0.5260    3.9619 Si  0  0  0  0  0  4  0  0  0  0  0  0
    1.4418   -1.4770    3.8839 Si  0  0  0  0  0  4  0  0  0  0  0  0
    1.4213   -0.7059    6.0001 Si  0  0  0  0  0  4  0  0  0  0  0  0
    2.4041   -2.1948    7.2866 Si  0  0  0  0  0  4  0  0  0  0  0  0
   -3.0608    1.8247    6.5884 Si  0  0  0  0  0  4  0  0  0  0  0  0
   -2.1469    1.6082    4.5779 Si  0  0  0  0  0  4  0  0  0  0  0  0
    1.7129   -2.1686    9.3789 Si  0  0  0  0  0  4  0  0  0  0  0  0
   -1.8584    3.2119    7.8072 Si  0  0  0  0  0  4  0  0  0  0  0  0
   -0.4738   -2.1791    9.6013 Si  0  0  0  0  0  4  0  0  0  0  0  0
   -0.7552    2.2045    9.4430 Si  0  0  0  0  0  4  0  0  0  0  0  0
   -1.0321   -0.8687   11.3277 Si  0  0  0  0  0  4  0  0  0  0  0  0
   -2.1312    0.9443   10.6285 Si  0  0  0  0  0  4  0  0  0  0  0  0
   -2.0160   -1.5746    5.2555 F   0  0  0  0  0  0  0  0  0  0  0  0
   -3.3043   -0.9001    2.9614 F   0  0  0  0  0  0  0  0  0  0  0  0
    1.3278   -3.1737    4.0013 F   0  0  0  0  0  0  0  0  0  0  0  0
    2.9121   -1.0215    3.1964 F   0  0  0  0  0  0  0  0  0  0  0  0
    2.2355   -3.7399    6.5946 F   0  0  0  0  0  0  0  0  0  0  0  0
    4.0784   -1.8661    7.2801 F   0  0  0  0  0  0  0  0  0  0  0  0
    2.3567   -0.7941   10.1588 F   0  0  0  0  0  0  0  0  0  0  0  0
    2.3732   -3.5081   10.1773 F   0  0  0  0  0  0  0  0  0  0  0  0
   -0.5939    2.2865    4.5822 F   0  0  0  0  0  0  0  0  0  0  0  0
   -3.0339    2.4227    3.4005 F   0  0  0  0  0  0  0  0  0  0  0  0
    0.3580   -0.3320   12.1382 F   0  0  0  0  0  0  0  0  0  0  0  0
   -2.0165   -1.6736   12.4251 F   0  0  0  0  0  0  0  0  0  0  0  0
   -3.5333    0.5413    9.7954 F   0  0  0  0  0  0  0  0  0  0  0  0
   -2.5962    1.8130   12.0025 F   0  0  0  0  0  0  0  0  0  0  0  0
    0.5564    1.3081    8.8668 F   0  0  0  0  0  0  0  0  0  0  0  0
   -0.0896    3.4229   10.4377 F   0  0  0  0  0  0  0  0  0  0  0  0
    2.3249    0.7417    6.0152 F   0  0  0  0  0  0  0  0  0  0  0  0
   -0.1316   -0.3296    6.4490 F   0  0  0  0  0  0  0  0  0  0  0  0
   -4.6158    2.4912    6.3766 F   0  0  0  0  0  0  0  0  0  0  0  0
   -3.2556    0.3191    7.2701 F   0  0  0  0  0  0  0  0  0  0  0  0
   -1.3001   -1.7507    8.2146 F   0  0  0  0  0  0  0  0  0  0  0  0
   -0.9728   -3.7606   10.0079 F   0  0  0  0  0  0  0  0  0  0  0  0
   -0.7360    4.0252    6.8311 F   0  0  0  0  0  0  0  0  0  0  0  0
   -2.8408    4.4148    8.5069 F   0  0  0  0  0  0  0  0  0  0  0  0
  1  2  1  0
  1  3  1  0
  2  7  1  0
  2 14  1  0
  2 15  1  0
  3  4  1  0
  3 16  1  0
  3 17  1  0
  4  5  1  0
  4 30  1  0
  4 31  1  0
  5  8  1  0
  5 18  1  0
  5 19  1  0
  6  7  1  0
  6  9  1  0
  6 32  1  0
  6 33  1  0
  7 22  1  0
  7 23  1  0
  8 10  1  0
  8 20  1  0
  8 21  1  0
  9 11  1  0
  9 36  1  0
  9 37  1  0
 10 12  1  0
 10 34  1  0
 10 35  1  0
 11 13  1  0
 11 28  1  0
 11 29  1  0
 12 13  1  0
 12 24  1  0
 12 25  1  0
 13 26  1  0
 13 27  1  0
M  CHG  1   1   1
M  RAD  1   1   2
M  END
$$$$

     RDKit          3D

 37 37  0  0  0  0  0  0  0  0999 V2000
   -0.2127   -0.7408    2.7726 S   0  0  0  0  0  2  0  0  0  0  0  0
    0.6432    0.7488    3.9723 Si  0  0  0  0  0  4  0  0  0  0  0  0
   -0.7972   -2.5116    3.7592 Si  0  0  0  0  0  4  0  0  0  0  0  0
    0.9249   -3.6707    4.5604 Si  0  0  0  0  0  4  0  0  0  0  0  0
    0.3016   -5.0996    6.1568 Si  0  0  0  0  0  4  0  0  0  0  0  0
    1.4576    0.3877    7.5246 Si  0  0  0  0  0  4  0  0  0  0  0  0
   -0.1351    0.9026    6.0173 Si  0  0  0  0  0  4  0  0  0  0  0  0
    1.6816   -5.0006    7.8821 Si  0  0  0  0  0  4  0  0  0  0  0  0
    1.0667    1.3161    9.4778 Si  0  0  0  0  0  4  0  0  0  0  0  0
    0.6684   -4.3318    9.7628 Si  0  0  0  0  0  4  0  0  0  0  0  0
    0.5513   -0.1869   11.0574 Si  0  0  0  0  0  4  0  0  0  0  0  0
   -1.0806   -3.0858    9.4024 Si  0  0  0  0  0  4  0  0  0  0  0  0
   -1.2793   -1.2867   10.6357 Si  0  0  0  0  0  4  0  0  0  0  0  0
    0.4603    2.2451    3.1682 F   0  0  0  0  0  0  0  0  0  0  0  0
    2.3288    0.4885    4.0545 F   0  0  0  0  0  0  0  0  0  0  0  0
   -1.5793   -3.5040    2.6352 F   0  0  0  0  0  0  0  0  0  0  0  0
   -1.9321   -2.1441    4.9371 F   0  0  0  0  0  0  0  0  0  0  0  0
   -1.3068   -4.8683    6.6006 F   0  0  0  0  0  0  0  0  0  0  0  0
    0.3809   -6.6726    5.5275 F   0  0  0  0  0  0  0  0  0  0  0  0
    2.4110   -6.5066    8.1994 F   0  0  0  0  0  0  0  0  0  0  0  0
    2.9682   -3.9478    7.5031 F   0  0  0  0  0  0  0  0  0  0  0  0
   -1.5194   -0.0133    6.2752 F   0  0  0  0  0  0  0  0  0  0  0  0
   -0.5603    2.5114    6.3549 F   0  0  0  0  0  0  0  0  0  0  0  0
   -2.5038   -4.0130    9.6015 F   0  0  0  0  0  0  0  0  0  0  0  0
   -1.0784   -2.6176    7.7772 F   0  0  0  0  0  0  0  0  0  0  0  0
   -2.0399   -1.7096   12.1029 F   0  0  0  0  0  0  0  0  0  0  0  0
   -2.3737   -0.2297    9.8603 F   0  0  0  0  0  0  0  0  0  0  0  0
    1.8973   -1.1269   11.3375 F   0  0  0  0  0  0  0  0  0  0  0  0
    0.2991    0.7230   12.4831 F   0  0  0  0  0  0  0  0  0  0  0  0
    1.5922   -4.5252    3.2451 F   0  0  0  0  0  0  0  0  0  0  0  0
    2.1513   -2.6371    5.0984 F   0  0  0  0  0  0  0  0  0  0  0  0
    1.6007   -1.2694    7.7111 F   0  0  0  0  0  0  0  0  0  0  0  0
    2.9171    0.9569    6.8890 F   0  0  0  0  0  0  0  0  0  0  0  0
    1.8591   -3.5961   10.7022 F   0  0  0  0  0  0  0  0  0  0  0  0
    0.1971   -5.7386   10.6090 F   0  0  0  0  0  0  0  0  0  0  0  0
    2.4522    2.1234   10.0041 F   0  0  0  0  0  0  0  0  0  0  0  0
   -0.1722    2.4800    9.3942 F   0  0  0  0  0  0  0  0  0  0  0  0
  1  2  1  0
  1  3  1  0
  2  7  1  0
  2 14  1  0
  2 15  1  0
  3  4  1  0
  3 16  1  0
  3 17  1  0
  4  5  1  0
  4 30  1  0
  4 31  1  0
  5  8  1  0
  5 18  1  0
  5 19  1  0
  6  7  1  0
  6  9  1  0
  6 32  1  0
  6 33  1  0
  7 22  1  0
  7 23  1  0
  8 10  1  0
  8 20  1  0
  8 21  1  0
  9 11  1  0
  9 36  1  0
  9 37  1  0
 10 12  1  0
 10 34  1  0
 10 35  1  0
 11 13  1  0
 11 28  1  0
 11 29  1  0
 12 13  1  0
 12 24  1  0
 12 25  1  0
 13 26  1  0
 13 27  1  0
M  CHG  1   1   1
M  RAD  1   1   2
M  END
$$$$
