
     RDKit          3D

 37 37  0  0  0  0  0  0  0  0999 V2000
    0.0020    0.0972    3.1580 S   0  0  0  0  0  2  0  0  0  0  0  0
    1.0347    1.9666    3.4743 Si  0  0  0  0  0  4  0  0  0  0  0  0
   -1.0704   -0.5122    4.8864 Si  0  0  0  0  0  4  0  0  0  0  0  0
    0.0448   -2.0430    6.0737 Si  0  0  0  0  0  4  0  0  0  0  0  0
   -0.4310   -1.9044    8.2414 Si  0  0  0  0  0  4  0  0  0  0  0  0
    0.4190    4.0794    6.4350 Si  0  0  0  0  0  4  0  0  0  0  0  0
    1.4976    2.2994    5.6077 Si  0  0  0  0  0  4  0  0  0  0  0  0
    1.3541   -1.3584    9.4536 Si  0  0  0  0  0  4  0  0  0  0  0  0
   -0.8722    3.5072    8.1363 Si  0  0  0  0  0  4  0  0  0  0  0  0
    0.7808    0.0012   11.1546 Si  0  0  0  0  0  4  0  0  0  0  0  0
   -0.5897    4.7731    9.9151 Si  0  0  0  0  0  4  0  0  0  0  0  0
    1.6880    2.0179   10.8255 Si  0  0  0  0  0  4  0  0  0  0  0  0
    0.4027    3.6433   11.5915 Si  0  0  0  0  0  4  0  0  0  0  0  0
    2.5150    1.8370    2.6337 F   0  0  0  0  0  0  0  0  0  0  0  0
    0.2033    3.2505    2.7908 F   0  0  0  0  0  0  0  0  0  0  0  0
   -2.5440   -1.2059    4.3780 F   0  0  0  0  0  0  0  0  0  0  0  0
   -1.4441    0.8310    5.7975 F   0  0  0  0  0  0  0  0  0  0  0  0
   -1.7093   -0.8527    8.5464 F   0  0  0  0  0  0  0  0  0  0  0  0
   -0.9422   -3.4475    8.7594 F   0  0  0  0  0  0  0  0  0  0  0  0
    2.0514   -2.7631   10.1232 F   0  0  0  0  0  0  0  0  0  0  0  0
    2.5549   -0.6331    8.5181 F   0  0  0  0  0  0  0  0  0  0  0  0
    3.1728    2.4964    5.8617 F   0  0  0  0  0  0  0  0  0  0  0  0
    1.0235    0.9572    6.4869 F   0  0  0  0  0  0  0  0  0  0  0  0
    3.2142    2.0659   11.5764 F   0  0  0  0  0  0  0  0  0  0  0  0
    1.9524    2.2085    9.1777 F   0  0  0  0  0  0  0  0  0  0  0  0
   -0.7697    2.9816   12.6216 F   0  0  0  0  0  0  0  0  0  0  0  0
    1.3571    4.7385   12.4562 F   0  0  0  0  0  0  0  0  0  0  0  0
   -2.1312    5.2175   10.4991 F   0  0  0  0  0  0  0  0  0  0  0  0
    0.2272    6.1916    9.5744 F   0  0  0  0  0  0  0  0  0  0  0  0
   -0.3955   -3.5675    5.4455 F   0  0  0  0  0  0  0  0  0  0  0  0
    1.7024   -1.9014    5.8808 F   0  0  0  0  0  0  0  0  0  0  0  0
   -0.5210    4.7380    5.1732 F   0  0  0  0  0  0  0  0  0  0  0  0
    1.5458    5.2550    6.8920 F   0  0  0  0  0  0  0  0  0  0  0  0
   -0.9080    0.1266   11.2448 F   0  0  0  0  0  0  0  0  0  0  0  0
    1.3870   -0.6109   12.6173 F   0  0  0  0  0  0  0  0  0  0  0  0
   -2.4826    3.4883    7.5985 F   0  0  0  0  0  0  0  0  0  0  0  0
   -0.5003    1.8942    8.5506 F   0  0  0  0  0  0  0  0  0  0  0  0
  1  2  1  0
  1  3  1  0
  2  7  1  0
  2 14  1  0
  2 15  1  0
  3  4  1  0
  3 16  1  0
  3 17  1  0
  4  5  1  0
  4 30  1  0
  4 31  1  0
  5  8  1  0
  5 18  1  0
  5 19  1  0
  6  7  1  0
  6  9  1  0
  6 32  1  0
  6 33  1  0
  7 22  1  0
  7 23  1  0
  8 10  1  0
  8 20  1  0
  8 21  1  0
  9 11  1  0
  9 36  1  0
  9 37  1  0
 10 12  1  0
 10 34  1  0
 10 35  1  0
 11 13  1  0
 11 28  1  0
 11 29  1  0
 12 13  1  0
 12 24  1  0
 12 25  1  0
 13 26  1  0
 13 27  1  0
M  CHG  1   1   1
M  RAD  1   1   2
M  END
$$$$

     RDKit          3D

 37 37  0  0  0  0  0  0  0  0999 V2000
    0.0020    0.0972    3.1580 S   0  0  0  0  0  2  0  0  0  0  0  0
    1.0180    1.9758    3.4742 Si  0  0  0  0  0  4  0  0  0  0  0  0
   -1.0650   -0.5216    4.8864 Si  0  0  0  0  0  4  0  0  0  0  0  0
    0.0638   -2.0423    6.0738 Si  0  0  0  0  0  4  0  0  0  0  0  0
   -0.4133   -1.9078    8.2415 Si  0  0  0  0  0  4  0  0  0  0  0  0
    0.3832    4.0832    6.4347 Si  0  0  0  0  0  4  0  0  0  0  0  0
    1.4778    2.3129    5.6076 Si  0  0  0  0  0  4  0  0  0  0  0  0
    1.3668   -1.3457    9.4538 Si  0  0  0  0  0  4  0  0  0  0  0  0
   -0.9029    3.4996    8.1360 Si  0  0  0  0  0  4  0  0  0  0  0  0
    0.7812    0.0088   11.1546 Si  0  0  0  0  0  4  0  0  0  0  0  0
   -0.6317    4.7681    9.9148 Si  0  0  0  0  0  4  0  0  0  0  0  0
    1.6704    2.0335   10.8254 Si  0  0  0  0  0  4  0  0  0  0  0  0
    0.3706    3.6474   11.5912 Si  0  0  0  0  0  4  0  0  0  0  0  0
    2.4993    1.8594    2.6336 F   0  0  0  0  0  0  0  0  0  0  0  0
    0.1751    3.2521    2.7905 F   0  0  0  0  0  0  0  0  0  0  0  0
   -2.5323   -1.2285    4.3780 F   0  0  0  0  0  0  0  0  0  0  0  0
   -1.4507    0.8182    5.7974 F   0  0  0  0  0  0  0  0  0  0  0  0
   -1.7010   -0.8675    8.5464 F   0  0  0  0  0  0  0  0  0  0  0  0
   -0.9107   -3.4554    8.7596 F   0  0  0  0  0  0  0  0  0  0  0  0
    2.0766   -2.7441   10.1235 F   0  0  0  0  0  0  0  0  0  0  0  0
    2.5611   -0.6098    8.5183 F   0  0  0  0  0  0  0  0  0  0  0  0
    3.1511    2.5249    5.8616 F   0  0  0  0  0  0  0  0  0  0  0  0
    1.0156    0.9665    6.4869 F   0  0  0  0  0  0  0  0  0  0  0  0
    3.1961    2.0952   11.5764 F   0  0  0  0  0  0  0  0  0  0  0  0
    1.9331    2.2263    9.1776 F   0  0  0  0  0  0  0  0  0  0  0  0
   -0.7958    2.9753   12.6213 F   0  0  0  0  0  0  0  0  0  0  0  0
    1.3152    4.7511   12.4559 F   0  0  0  0  0  0  0  0  0  0  0  0
   -2.1772    5.1987   10.4986 F   0  0  0  0  0  0  0  0  0  0  0  0
    0.1724    6.1938    9.5740 F   0  0  0  0  0  0  0  0  0  0  0  0
   -0.3628   -3.5708    5.4458 F   0  0  0  0  0  0  0  0  0  0  0  0
    1.7201   -1.8859    5.8811 F   0  0  0  0  0  0  0  0  0  0  0  0
   -0.5625    4.7332    5.1728 F   0  0  0  0  0  0  0  0  0  0  0  0
    1.4995    5.2688    6.8917 F   0  0  0  0  0  0  0  0  0  0  0  0
   -0.9086    0.1191   11.2448 F   0  0  0  0  0  0  0  0  0  0  0  0
    1.3929   -0.5978   12.6174 F   0  0  0  0  0  0  0  0  0  0  0  0
   -2.5130    3.4663    7.5982 F   0  0  0  0  0  0  0  0  0  0  0  0
   -0.5165    1.8900    8.5505 F   0  0  0  0  0  0  0  0  0  0  0  0
  1  2  1  0
  1  3  1  0
  2  7  1  0
  2 14  1  0
  2 15  1  0
  3  4  1  0
  3 16  1  0
  3 17  1  0
  4  5  1  0
  4 30  1  0
  4 31  1  0
  5  8  1  0
  5 18  1  0
  5 19  1  0
  6  7  1  0
  6  9  1  0
  6 32  1  0
  6 33  1  0
  7 22  1  0
  7 23  1  0
  8 10  1  0
  8 20  1  0
  8 21  1  0
  9 11  1  0
  9 36  1  0
  9 37  1  0
 10 12  1  0
 10 34  1  0
 10 35  1  0
 11 13  1  0
 11 28  1  0
 11 29  1  0
 12 13  1  0
 12 24  1  0
 12 25  1  0
 13 26  1  0
 13 27  1  0
M  CHG  1   1   1
M  RAD  1   1   2
M  END
$$$$
