
     RDKit          3D

 37 37  0  0  0  0  0  0  0  0999 V2000
    0.3868   -0.6269    2.7161 S   0  0  0  0  0  2  0  0  0  0  0  0
    0.2929   -2.6560    3.1631 Si  0  0  0  0  0  4  0  0  0  0  0  0
    1.6663    0.5657    3.8582 Si  0  0  0  0  0  4  0  0  0  0  0  0
    3.7797   -0.1903    3.9262 Si  0  0  0  0  0  4  0  0  0  0  0  0
    4.9128    0.8044    5.5787 Si  0  0  0  0  0  4  0  0  0  0  0  0
    0.2637   -2.4941    6.7843 Si  0  0  0  0  0  4  0  0  0  0  0  0
   -0.8492   -3.1454    5.0291 Si  0  0  0  0  0  4  0  0  0  0  0  0
    6.2339   -0.6730    6.6387 Si  0  0  0  0  0  4  0  0  0  0  0  0
    0.2547   -3.9543    8.4961 Si  0  0  0  0  0  4  0  0  0  0  0  0
    6.3461   -0.2785    8.8057 Si  0  0  0  0  0  4  0  0  0  0  0  0
    1.7423   -3.2024   10.0114 Si  0  0  0  0  0  4  0  0  0  0  0  0
    5.1970   -1.7725   10.0203 Si  0  0  0  0  0  4  0  0  0  0  0  0
    3.4157   -2.2909    8.8850 Si  0  0  0  0  0  4  0  0  0  0  0  0
    1.8509   -3.3213    3.3655 F   0  0  0  0  0  0  0  0  0  0  0  0
   -0.3927   -3.4961    1.8500 F   0  0  0  0  0  0  0  0  0  0  0  0
    1.7375    2.1112    3.1639 F   0  0  0  0  0  0  0  0  0  0  0  0
    1.1988    0.7756    5.4530 F   0  0  0  0  0  0  0  0  0  0  0  0
    5.8989    1.9982    4.9172 F   0  0  0  0  0  0  0  0  0  0  0  0
    3.8445    1.5194    6.6609 F   0  0  0  0  0  0  0  0  0  0  0  0
    5.6236   -2.1788    6.2619 F   0  0  0  0  0  0  0  0  0  0  0  0
    7.7949   -0.5795    5.9921 F   0  0  0  0  0  0  0  0  0  0  0  0
   -2.3156   -2.2939    4.9413 F   0  0  0  0  0  0  0  0  0  0  0  0
   -1.1322   -4.8090    5.0536 F   0  0  0  0  0  0  0  0  0  0  0  0
    4.7560   -1.0208   11.4872 F   0  0  0  0  0  0  0  0  0  0  0  0
    6.1985   -3.0728   10.3673 F   0  0  0  0  0  0  0  0  0  0  0  0
    3.8170   -3.4160    7.6964 F   0  0  0  0  0  0  0  0  0  0  0  0
    2.8364   -0.8435    8.2093 F   0  0  0  0  0  0  0  0  0  0  0  0
    1.0189   -2.1175   11.0679 F   0  0  0  0  0  0  0  0  0  0  0  0
    2.3304   -4.5443   10.8493 F   0  0  0  0  0  0  0  0  0  0  0  0
    4.5118    0.1913    2.4559 F   0  0  0  0  0  0  0  0  0  0  0  0
    3.8099   -1.8634    4.0984 F   0  0  0  0  0  0  0  0  0  0  0  0
   -0.3257   -1.0569    7.4557 F   0  0  0  0  0  0  0  0  0  0  0  0
    1.8903   -2.3516    6.3514 F   0  0  0  0  0  0  0  0  0  0  0  0
    7.9464   -0.2114    9.3276 F   0  0  0  0  0  0  0  0  0  0  0  0
    5.6623    1.2390    9.1168 F   0  0  0  0  0  0  0  0  0  0  0  0
    0.6319   -5.4941    7.9900 F   0  0  0  0  0  0  0  0  0  0  0  0
   -1.2922   -3.9033    9.1758 F   0  0  0  0  0  0  0  0  0  0  0  0
  1  2  1  0
  1  3  1  0
  2  7  1  0
  2 14  1  0
  2 15  1  0
  3  4  1  0
  3 16  1  0
  3 17  1  0
  4  5  1  0
  4 30  1  0
  4 31  1  0
  5  8  1  0
  5 18  1  0
  5 19  1  0
  6  7  1  0
  6  9  1  0
  6 32  1  0
  6 33  1  0
  7 22  1  0
  7 23  1  0
  8 10  1  0
  8 20  1  0
  8 21  1  0
  9 11  1  0
  9 36  1  0
  9 37  1  0
 10 12  1  0
 10 34  1  0
 10 35  1  0
 11 13  1  0
 11 28  1  0
 11 29  1  0
 12 13  1  0
 12 24  1  0
 12 25  1  0
 13 26  1  0
 13 27  1  0
M  CHG  1   1   1
M  RAD  1   1   2
M  END
$$$$

     RDKit          3D

 37 37  0  0  0  0  0  0  0  0999 V2000
    0.3868   -0.6269    2.7161 S   0  0  0  0  0  2  0  0  0  0  0  0
   -0.2453   -2.6865    2.9686 Si  0  0  0  0  0  4  0  0  0  0  0  0
    0.9034    0.1000    4.6547 Si  0  0  0  0  0  4  0  0  0  0  0  0
    2.3098    1.8463    4.5242 Si  0  0  0  0  0  4  0  0  0  0  0  0
    3.1671    2.1196    6.5959 Si  0  0  0  0  0  4  0  0  0  0  0  0
    0.6999   -4.0209    6.2750 Si  0  0  0  0  0  4  0  0  0  0  0  0
    1.2952   -3.8032    4.1253 Si  0  0  0  0  0  4  0  0  0  0  0  0
    4.8517    0.7423    6.9254 Si  0  0  0  0  0  4  0  0  0  0  0  0
    2.5430   -3.9938    7.5107 Si  0  0  0  0  0  4  0  0  0  0  0  0
    4.9647   -0.1067    8.9415 Si  0  0  0  0  0  4  0  0  0  0  0  0
    2.1439   -3.2851    9.5830 Si  0  0  0  0  0  4  0  0  0  0  0  0
    3.1603    0.2107   10.1703 Si  0  0  0  0  0  4  0  0  0  0  0  0
    1.5048   -1.1824    9.6645 Si  0  0  0  0  0  4  0  0  0  0  0  0
   -0.5035   -3.4212    1.4865 F   0  0  0  0  0  0  0  0  0  0  0  0
   -1.7010   -2.7317    3.8441 F   0  0  0  0  0  0  0  0  0  0  0  0
   -0.4370    0.5710    5.5442 F   0  0  0  0  0  0  0  0  0  0  0  0
    1.7635   -1.1446    5.4455 F   0  0  0  0  0  0  0  0  0  0  0  0
    1.9067    1.9221    7.6630 F   0  0  0  0  0  0  0  0  0  0  0  0
    3.7071    3.7320    6.7388 F   0  0  0  0  0  0  0  0  0  0  0  0
    4.7699   -0.4873    5.7430 F   0  0  0  0  0  0  0  0  0  0  0  0
    6.2987    1.5854    6.5868 F   0  0  0  0  0  0  0  0  0  0  0  0
    2.7767   -2.9969    3.9991 F   0  0  0  0  0  0  0  0  0  0  0  0
    1.5166   -5.3344    3.4274 F   0  0  0  0  0  0  0  0  0  0  0  0
    3.5905   -0.0899   11.7969 F   0  0  0  0  0  0  0  0  0  0  0  0
    2.6053    1.7859   10.1114 F   0  0  0  0  0  0  0  0  0  0  0  0
    0.7311   -0.7771    8.2387 F   0  0  0  0  0  0  0  0  0  0  0  0
    0.3453   -1.0238   10.9096 F   0  0  0  0  0  0  0  0  0  0  0  0
    3.5147   -3.5807   10.5283 F   0  0  0  0  0  0  0  0  0  0  0  0
    0.9064   -4.2612   10.2095 F   0  0  0  0  0  0  0  0  0  0  0  0
    1.4684    3.2543    4.1343 F   0  0  0  0  0  0  0  0  0  0  0  0
    3.5345    1.5600    3.4081 F   0  0  0  0  0  0  0  0  0  0  0  0
   -0.3848   -2.8216    6.7003 F   0  0  0  0  0  0  0  0  0  0  0  0
   -0.0437   -5.5505    6.4162 F   0  0  0  0  0  0  0  0  0  0  0  0
    5.2965   -1.7811    8.9206 F   0  0  0  0  0  0  0  0  0  0  0  0
    6.2740    0.5868    9.7945 F   0  0  0  0  0  0  0  0  0  0  0  0
    3.0993   -5.6024    7.6316 F   0  0  0  0  0  0  0  0  0  0  0  0
    3.7229   -3.1161    6.7394 F   0  0  0  0  0  0  0  0  0  0  0  0
  1  2  1  0
  1  3  1  0
  2  7  1  0
  2 14  1  0
  2 15  1  0
  3  4  1  0
  3 16  1  0
  3 17  1  0
  4  5  1  0
  4 30  1  0
  4 31  1  0
  5  8  1  0
  5 18  1  0
  5 19  1  0
  6  7  1  0
  6  9  1  0
  6 32  1  0
  6 33  1  0
  7 22  1  0
  7 23  1  0
  8 10  1  0
  8 20  1  0
  8 21  1  0
  9 11  1  0
  9 36  1  0
  9 37  1  0
 10 12  1  0
 10 34  1  0
 10 35  1  0
 11 13  1  0
 11 28  1  0
 11 29  1  0
 12 13  1  0
 12 24  1  0
 12 25  1  0
 13 26  1  0
 13 27  1  0
M  CHG  1   1   1
M  RAD  1   1   2
M  END
$$$$

     RDKit          3D

 37 37  0  0  0  0  0  0  0  0999 V2000
    0.3868   -0.6269    2.7161 S   0  0  0  0  0  2  0  0  0  0  0  0
   -0.1317   -2.7230    2.8271 Si  0  0  0  0  0  4  0  0  0  0  0  0
   -0.4290    0.3291    4.4371 Si  0  0  0  0  0  4  0  0  0  0  0  0
   -0.3102    2.5618    4.2782 Si  0  0  0  0  0  4  0  0  0  0  0  0
   -0.8435    3.3435    6.3269 Si  0  0  0  0  0  4  0  0  0  0  0  0
   -0.1074   -3.7370    6.3527 Si  0  0  0  0  0  4  0  0  0  0  0  0
    1.0371   -3.7179    4.4808 Si  0  0  0  0  0  4  0  0  0  0  0  0
    0.5222    2.4266    7.8420 Si  0  0  0  0  0  4  0  0  0  0  0  0
    1.1690   -3.7844    8.1800 Si  0  0  0  0  0  4  0  0  0  0  0  0
   -0.6437    0.9750    9.0451 Si  0  0  0  0  0  4  0  0  0  0  0  0
    2.7520   -2.2848    8.2051 Si  0  0  0  0  0  4  0  0  0  0  0  0
    0.5820   -0.2191   10.4234 Si  0  0  0  0  0  4  0  0  0  0  0  0
    2.5937   -0.7115    9.7034 Si  0  0  0  0  0  4  0  0  0  0  0  0
   -1.7869   -2.8282    3.1438 F   0  0  0  0  0  0  0  0  0  0  0  0
    0.1706   -3.4467    1.3561 F   0  0  0  0  0  0  0  0  0  0  0  0
    0.4606   -0.1128    5.7730 F   0  0  0  0  0  0  0  0  0  0  0  0
   -2.0501   -0.1125    4.5642 F   0  0  0  0  0  0  0  0  0  0  0  0
   -0.7872    5.0094    6.3618 F   0  0  0  0  0  0  0  0  0  0  0  0
   -2.4560    2.8812    6.6049 F   0  0  0  0  0  0  0  0  0  0  0  0
    1.0537    3.6934    8.8516 F   0  0  0  0  0  0  0  0  0  0  0  0
    1.8088    1.7450    7.0487 F   0  0  0  0  0  0  0  0  0  0  0  0
    1.3083   -5.3204    3.9569 F   0  0  0  0  0  0  0  0  0  0  0  0
    2.5121   -2.9718    4.5730 F   0  0  0  0  0  0  0  0  0  0  0  0
    0.7705    0.7168   11.8456 F   0  0  0  0  0  0  0  0  0  0  0  0
   -0.2976   -1.5739   10.9030 F   0  0  0  0  0  0  0  0  0  0  0  0
    3.3254    0.6996    9.1279 F   0  0  0  0  0  0  0  0  0  0  0  0
    3.5102   -1.1500   11.0817 F   0  0  0  0  0  0  0  0  0  0  0  0
    4.2483   -3.0911    8.4283 F   0  0  0  0  0  0  0  0  0  0  0  0
    2.9259   -1.5710    6.6623 F   0  0  0  0  0  0  0  0  0  0  0  0
   -1.3762    3.1428    3.1414 F   0  0  0  0  0  0  0  0  0  0  0  0
    1.2924    3.0018    3.9158 F   0  0  0  0  0  0  0  0  0  0  0  0
   -1.2407   -2.5020    6.4028 F   0  0  0  0  0  0  0  0  0  0  0  0
   -1.0163   -5.1874    6.3814 F   0  0  0  0  0  0  0  0  0  0  0  0
   -1.7592    1.8587    9.9599 F   0  0  0  0  0  0  0  0  0  0  0  0
   -1.5540    0.0231    7.9908 F   0  0  0  0  0  0  0  0  0  0  0  0
    0.1134   -3.6733    9.5166 F   0  0  0  0  0  0  0  0  0  0  0  0
    1.7917   -5.3717    8.2586 F   0  0  0  0  0  0  0  0  0  0  0  0
  1  2  1  0
  1  3  1  0
  2  7  1  0
  2 14  1  0
  2 15  1  0
  3  4  1  0
  3 16  1  0
  3 17  1  0
  4  5  1  0
  4 30  1  0
  4 31  1  0
  5  8  1  0
  5 18  1  0
  5 19  1  0
  6  7  1  0
  6  9  1  0
  6 32  1  0
  6 33  1  0
  7 22  1  0
  7 23  1  0
  8 10  1  0
  8 20  1  0
  8 21  1  0
  9 11  1  0
  9 36  1  0
  9 37  1  0
 10 12  1  0
 10 34  1  0
 10 35  1  0
 11 13  1  0
 11 28  1  0
 11 29  1  0
 12 13  1  0
 12 24  1  0
 12 25  1  0
 13 26  1  0
 13 27  1  0
M  CHG  1   1   1
M  RAD  1   1   2
M  END
$$$$

     RDKit          3D

 37 37  0  0  0  0  0  0  0  0999 V2000
    0.3868   -0.6269    2.7161 S   0  0  0  0  0  2  0  0  0  0  0  0
    0.4495    1.4920    3.1417 Si  0  0  0  0  0  4  0  0  0  0  0  0
    1.3794   -1.6326    4.3114 Si  0  0  0  0  0  4  0  0  0  0  0  0
    1.7365   -3.7931    3.8330 Si  0  0  0  0  0  4  0  0  0  0  0  0
    2.4146   -4.7372    5.7674 Si  0  0  0  0  0  4  0  0  0  0  0  0
    0.1964    1.9520    6.7725 Si  0  0  0  0  0  4  0  0  0  0  0  0
   -0.9103    1.9682    4.8780 Si  0  0  0  0  0  4  0  0  0  0  0  0
    0.8795   -4.3572    7.3485 Si  0  0  0  0  0  4  0  0  0  0  0  0
   -1.0688    1.4642    8.5422 Si  0  0  0  0  0  4  0  0  0  0  0  0
    1.7066   -2.8860    8.7857 Si  0  0  0  0  0  4  0  0  0  0  0  0
   -2.2985   -0.3201    8.2988 Si  0  0  0  0  0  4  0  0  0  0  0  0
    0.2502   -2.1887   10.2758 Si  0  0  0  0  0  4  0  0  0  0  0  0
   -1.8171   -2.0274    9.5631 Si  0  0  0  0  0  4  0  0  0  0  0  0
    2.0436    1.8930    3.5278 F   0  0  0  0  0  0  0  0  0  0  0  0
    0.0070    2.3436    1.7787 F   0  0  0  0  0  0  0  0  0  0  0  0
    0.4108   -1.5863    5.6646 F   0  0  0  0  0  0  0  0  0  0  0  0
    2.8698   -0.8857    4.5565 F   0  0  0  0  0  0  0  0  0  0  0  0
    2.7121   -6.3649    5.5634 F   0  0  0  0  0  0  0  0  0  0  0  0
    3.8916   -3.9940    6.1644 F   0  0  0  0  0  0  0  0  0  0  0  0
    0.6240   -5.8407    8.1489 F   0  0  0  0  0  0  0  0  0  0  0  0
   -0.5189   -3.8507    6.6155 F   0  0  0  0  0  0  0  0  0  0  0  0
   -1.5123    3.5377    4.5778 F   0  0  0  0  0  0  0  0  0  0  0  0
   -2.1943    0.9253    4.8116 F   0  0  0  0  0  0  0  0  0  0  0  0
    0.2581   -3.3410   11.5432 F   0  0  0  0  0  0  0  0  0  0  0  0
    0.8212   -0.7651   10.9734 F   0  0  0  0  0  0  0  0  0  0  0  0
   -2.2311   -3.4605    8.7678 F   0  0  0  0  0  0  0  0  0  0  0  0
   -2.8113   -1.9962   10.9567 F   0  0  0  0  0  0  0  0  0  0  0  0
   -3.9325    0.1145    8.5817 F   0  0  0  0  0  0  0  0  0  0  0  0
   -2.3110   -0.8211    6.6651 F   0  0  0  0  0  0  0  0  0  0  0  0
    2.9060   -3.9662    2.6632 F   0  0  0  0  0  0  0  0  0  0  0  0
    0.2649   -4.5003    3.3559 F   0  0  0  0  0  0  0  0  0  0  0  0
    1.5652    0.9871    6.6863 F   0  0  0  0  0  0  0  0  0  0  0  0
    0.7776    3.5401    7.0387 F   0  0  0  0  0  0  0  0  0  0  0  0
    2.9801   -3.6413    9.6042 F   0  0  0  0  0  0  0  0  0  0  0  0
    2.3993   -1.6213    7.9097 F   0  0  0  0  0  0  0  0  0  0  0  0
   -0.0191    1.3818    9.8856 F   0  0  0  0  0  0  0  0  0  0  0  0
   -2.0137    2.8576    8.8236 F   0  0  0  0  0  0  0  0  0  0  0  0
  1  2  1  0
  1  3  1  0
  2  7  1  0
  2 14  1  0
  2 15  1  0
  3  4  1  0
  3 16  1  0
  3 17  1  0
  4  5  1  0
  4 30  1  0
  4 31  1  0
  5  8  1  0
  5 18  1  0
  5 19  1  0
  6  7  1  0
  6  9  1  0
  6 32  1  0
  6 33  1  0
  7 22  1  0
  7 23  1  0
  8 10  1  0
  8 20  1  0
  8 21  1  0
  9 11  1  0
  9 36  1  0
  9 37  1  0
 10 12  1  0
 10 34  1  0
 10 35  1  0
 11 13  1  0
 11 28  1  0
 11 29  1  0
 12 13  1  0
 12 24  1  0
 12 25  1  0
 13 26  1  0
 13 27  1  0
M  CHG  1   1   1
M  RAD  1   1   2
M  END
$$$$

     RDKit          3D

 37 37  0  0  0  0  0  0  0  0999 V2000
    0.3868   -0.6269    2.7161 S   0  0  0  0  0  2  0  0  0  0  0  0
    0.3214    0.4836    4.5209 Si  0  0  0  0  0  4  0  0  0  0  0  0
    0.1452   -2.7208    3.0185 Si  0  0  0  0  0  4  0  0  0  0  0  0
   -1.7652   -3.2303    4.0153 Si  0  0  0  0  0  4  0  0  0  0  0  0
   -1.4604   -4.8631    5.5446 Si  0  0  0  0  0  4  0  0  0  0  0  0
    3.9216   -0.2849    4.8185 Si  0  0  0  0  0  4  0  0  0  0  0  0
    2.3317    1.1825    5.1727 Si  0  0  0  0  0  4  0  0  0  0  0  0
    0.6147   -4.6356    6.3015 Si  0  0  0  0  0  4  0  0  0  0  0  0
    4.2913   -1.6496    6.5237 Si  0  0  0  0  0  4  0  0  0  0  0  0
    0.8978   -5.4071    8.3428 Si  0  0  0  0  0  4  0  0  0  0  0  0
    3.1532   -1.0940    8.3241 Si  0  0  0  0  0  4  0  0  0  0  0  0
    2.9372   -4.7251    9.0356 Si  0  0  0  0  0  4  0  0  0  0  0  0
    2.8967   -2.6708    9.8032 Si  0  0  0  0  0  4  0  0  0  0  0  0
   -0.4668   -0.3978    5.7023 F   0  0  0  0  0  0  0  0  0  0  0  0
   -0.6225    1.8788    4.2374 F   0  0  0  0  0  0  0  0  0  0  0  0
    1.4879   -3.2881    3.8615 F   0  0  0  0  0  0  0  0  0  0  0  0
    0.1885   -3.4644    1.4858 F   0  0  0  0  0  0  0  0  0  0  0  0
   -1.5886   -6.3450    4.7700 F   0  0  0  0  0  0  0  0  0  0  0  0
   -2.5986   -4.7536    6.7603 F   0  0  0  0  0  0  0  0  0  0  0  0
    0.9483   -2.9658    6.3324 F   0  0  0  0  0  0  0  0  0  0  0  0
    1.6818   -5.4379    5.2626 F   0  0  0  0  0  0  0  0  0  0  0  0
    2.6816    2.5590    4.2197 F   0  0  0  0  0  0  0  0  0  0  0  0
    2.2465    1.7203    6.7608 F   0  0  0  0  0  0  0  0  0  0  0  0
    3.3514   -5.7701   10.3227 F   0  0  0  0  0  0  0  0  0  0  0  0
    4.0718   -4.9813    7.8298 F   0  0  0  0  0  0  0  0  0  0  0  0
    1.4071   -2.4418   10.6085 F   0  0  0  0  0  0  0  0  0  0  0  0
    4.0871   -2.5283   11.0197 F   0  0  0  0  0  0  0  0  0  0  0  0
    1.6225   -0.4854    7.8772 F   0  0  0  0  0  0  0  0  0  0  0  0
    3.9627    0.2243    9.0511 F   0  0  0  0  0  0  0  0  0  0  0  0
   -2.8626   -3.8072    2.8498 F   0  0  0  0  0  0  0  0  0  0  0  0
   -2.4038   -1.8772    4.7950 F   0  0  0  0  0  0  0  0  0  0  0  0
    3.5739   -1.1324    3.3871 F   0  0  0  0  0  0  0  0  0  0  0  0
    5.3751    0.5571    4.5118 F   0  0  0  0  0  0  0  0  0  0  0  0
    0.9464   -7.1031    8.3014 F   0  0  0  0  0  0  0  0  0  0  0  0
   -0.2703   -4.9231    9.4227 F   0  0  0  0  0  0  0  0  0  0  0  0
    5.9481   -1.6912    6.9414 F   0  0  0  0  0  0  0  0  0  0  0  0
    3.9307   -3.2232    5.9904 F   0  0  0  0  0  0  0  0  0  0  0  0
  1  2  1  0
  1  3  1  0
  2  7  1  0
  2 14  1  0
  2 15  1  0
  3  4  1  0
  3 16  1  0
  3 17  1  0
  4  5  1  0
  4 30  1  0
  4 31  1  0
  5  8  1  0
  5 18  1  0
  5 19  1  0
  6  7  1  0
  6  9  1  0
  6 32  1  0
  6 33  1  0
  7 22  1  0
  7 23  1  0
  8 10  1  0
  8 20  1  0
  8 21  1  0
  9 11  1  0
  9 36  1  0
  9 37  1  0
 10 12  1  0
 10 34  1  0
 10 35  1  0
 11 13  1  0
 11 28  1  0
 11 29  1  0
 12 13  1  0
 12 24  1  0
 12 25  1  0
 13 26  1  0
 13 27  1  0
M  CHG  1   1   1
M  RAD  1   1   2
M  END
$$$$
