
     RDKit          3D

 37 37  0  0  0  0  0  0  0  0999 V2000
    1.9716    0.0623    2.5612 S   0  0  0  0  0  2  0  0  0  0  0  0
    3.7881   -0.6538    3.5013 Si  0  0  0  0  0  4  0  0  0  0  0  0
    0.6916    1.0611    3.8856 Si  0  0  0  0  0  4  0  0  0  0  0  0
    0.9898    0.5263    6.0201 Si  0  0  0  0  0  4  0  0  0  0  0  0
    0.0232    1.9327    7.4006 Si  0  0  0  0  0  4  0  0  0  0  0  0
    4.2727   -2.7593    6.5392 Si  0  0  0  0  0  4  0  0  0  0  0  0
    3.5347   -2.5685    4.4900 Si  0  0  0  0  0  4  0  0  0  0  0  0
    1.2840    3.4909    8.2448 Si  0  0  0  0  0  4  0  0  0  0  0  0
    5.8570   -1.3854    7.1436 Si  0  0  0  0  0  4  0  0  0  0  0  0
    3.4531    3.1770    8.1911 Si  0  0  0  0  0  4  0  0  0  0  0  0
    5.8597   -1.0956    9.3815 Si  0  0  0  0  0  4  0  0  0  0  0  0
    4.2541    2.1683    9.9916 Si  0  0  0  0  0  4  0  0  0  0  0  0
    4.0061   -0.0058   10.0209 Si  0  0  0  0  0  4  0  0  0  0  0  0
    4.9096   -0.7848    2.2154 F   0  0  0  0  0  0  0  0  0  0  0  0
    4.3304    0.5950    4.4579 F   0  0  0  0  0  0  0  0  0  0  0  0
   -0.9239    0.7874    3.4126 F   0  0  0  0  0  0  0  0  0  0  0  0
    0.9409    2.7396    3.7412 F   0  0  0  0  0  0  0  0  0  0  0  0
   -0.7119    1.0437    8.6633 F   0  0  0  0  0  0  0  0  0  0  0  0
   -1.2951    2.6250    6.5575 F   0  0  0  0  0  0  0  0  0  0  0  0
    0.8554    3.7549    9.8799 F   0  0  0  0  0  0  0  0  0  0  0  0
    0.9245    4.9753    7.4732 F   0  0  0  0  0  0  0  0  0  0  0  0
    4.2382   -3.8002    3.5343 F   0  0  0  0  0  0  0  0  0  0  0  0
    1.8653   -2.9449    4.4794 F   0  0  0  0  0  0  0  0  0  0  0  0
    5.9168    2.5378   10.0999 F   0  0  0  0  0  0  0  0  0  0  0  0
    3.5304    2.8758   11.3507 F   0  0  0  0  0  0  0  0  0  0  0  0
    2.6559   -0.5483    9.1711 F   0  0  0  0  0  0  0  0  0  0  0  0
    3.7469   -0.4756   11.6460 F   0  0  0  0  0  0  0  0  0  0  0  0
    5.9382   -2.5585   10.1797 F   0  0  0  0  0  0  0  0  0  0  0  0
    7.2160   -0.1755    9.7652 F   0  0  0  0  0  0  0  0  0  0  0  0
    0.3315   -1.0355    6.2392 F   0  0  0  0  0  0  0  0  0  0  0  0
    2.6128    0.4283    6.3350 F   0  0  0  0  0  0  0  0  0  0  0  0
    2.9696   -2.5554    7.6283 F   0  0  0  0  0  0  0  0  0  0  0  0
    4.7991   -4.3518    6.8004 F   0  0  0  0  0  0  0  0  0  0  0  0
    4.0177    2.5122    6.7650 F   0  0  0  0  0  0  0  0  0  0  0  0
    4.1883    4.7295    8.2300 F   0  0  0  0  0  0  0  0  0  0  0  0
    5.8091    0.1228    6.4807 F   0  0  0  0  0  0  0  0  0  0  0  0
    7.3686   -2.0802    6.7651 F   0  0  0  0  0  0  0  0  0  0  0  0
  1  2  1  0
  1  3  1  0
  2  7  1  0
  2 14  1  0
  2 15  1  0
  3  4  1  0
  3 16  1  0
  3 17  1  0
  4  5  1  0
  4 30  1  0
  4 31  1  0
  5  8  1  0
  5 18  1  0
  5 19  1  0
  6  7  1  0
  6  9  1  0
  6 32  1  0
  6 33  1  0
  7 22  1  0
  7 23  1  0
  8 10  1  0
  8 20  1  0
  8 21  1  0
  9 11  1  0
  9 36  1  0
  9 37  1  0
 10 12  1  0
 10 34  1  0
 10 35  1  0
 11 13  1  0
 11 28  1  0
 11 29  1  0
 12 13  1  0
 12 24  1  0
 12 25  1  0
 13 26  1  0
 13 27  1  0
M  CHG  1   1   1
M  RAD  1   1   2
M  END
$$$$

     RDKit          3D

 37 37  0  0  0  0  0  0  0  0999 V2000
    1.9716    0.0623    2.5612 S   0  0  0  0  0  2  0  0  0  0  0  0
    1.8939    1.3476    4.2123 Si  0  0  0  0  0  4  0  0  0  0  0  0
    2.2386   -1.9672    2.9272 Si  0  0  0  0  0  4  0  0  0  0  0  0
    3.7481   -2.4648    4.4624 Si  0  0  0  0  0  4  0  0  0  0  0  0
    3.6107   -4.6316    5.0123 Si  0  0  0  0  0  4  0  0  0  0  0  0
   -0.9753    1.2787    6.5315 Si  0  0  0  0  0  4  0  0  0  0  0  0
   -0.1539    2.1078    4.6467 Si  0  0  0  0  0  4  0  0  0  0  0  0
    2.1260   -4.9411    6.6622 Si  0  0  0  0  0  4  0  0  0  0  0  0
    0.1985   -0.4040    7.3350 Si  0  0  0  0  0  4  0  0  0  0  0  0
    0.1824   -5.4678    5.7761 Si  0  0  0  0  0  4  0  0  0  0  0  0
   -0.9631   -1.4230    8.9322 Si  0  0  0  0  0  4  0  0  0  0  0  0
   -1.4507   -4.0583    6.3780 Si  0  0  0  0  0  4  0  0  0  0  0  0
   -1.3450   -3.5470    8.5187 Si  0  0  0  0  0  4  0  0  0  0  0  0
    2.8567    2.7165    3.8562 F   0  0  0  0  0  0  0  0  0  0  0  0
    2.5145    0.7037    5.6299 F   0  0  0  0  0  0  0  0  0  0  0  0
    0.7483   -2.6676    3.3785 F   0  0  0  0  0  0  0  0  0  0  0  0
    2.6935   -2.7516    1.4941 F   0  0  0  0  0  0  0  0  0  0  0  0
    5.1259   -5.1202    5.5505 F   0  0  0  0  0  0  0  0  0  0  0  0
    3.1178   -5.5617    3.7042 F   0  0  0  0  0  0  0  0  0  0  0  0
    2.0566   -3.6141    7.6873 F   0  0  0  0  0  0  0  0  0  0  0  0
    2.7107   -6.2430    7.5995 F   0  0  0  0  0  0  0  0  0  0  0  0
   -0.1914    3.7913    4.7657 F   0  0  0  0  0  0  0  0  0  0  0  0
   -1.1345    1.6978    3.3176 F   0  0  0  0  0  0  0  0  0  0  0  0
   -2.9037   -4.8969    6.1055 F   0  0  0  0  0  0  0  0  0  0  0  0
   -1.4916   -2.7080    5.3759 F   0  0  0  0  0  0  0  0  0  0  0  0
   -2.7696   -4.0041    9.3417 F   0  0  0  0  0  0  0  0  0  0  0  0
   -0.1032   -4.4878    9.2177 F   0  0  0  0  0  0  0  0  0  0  0  0
   -2.4537   -0.6288    9.1758 F   0  0  0  0  0  0  0  0  0  0  0  0
   -0.1227   -1.2993   10.3936 F   0  0  0  0  0  0  0  0  0  0  0  0
    5.2984   -2.2119    3.8260 F   0  0  0  0  0  0  0  0  0  0  0  0
    3.6007   -1.5906    5.8649 F   0  0  0  0  0  0  0  0  0  0  0  0
   -1.1239    2.4648    7.7348 F   0  0  0  0  0  0  0  0  0  0  0  0
   -2.5531    0.7205    6.2061 F   0  0  0  0  0  0  0  0  0  0  0  0
   -0.2943   -7.0167    6.3088 F   0  0  0  0  0  0  0  0  0  0  0  0
    0.2118   -5.5311    4.0940 F   0  0  0  0  0  0  0  0  0  0  0  0
    1.6486    0.2253    7.9801 F   0  0  0  0  0  0  0  0  0  0  0  0
    0.6146   -1.4846    6.1321 F   0  0  0  0  0  0  0  0  0  0  0  0
  1  2  1  0
  1  3  1  0
  2  7  1  0
  2 14  1  0
  2 15  1  0
  3  4  1  0
  3 16  1  0
  3 17  1  0
  4  5  1  0
  4 30  1  0
  4 31  1  0
  5  8  1  0
  5 18  1  0
  5 19  1  0
  6  7  1  0
  6  9  1  0
  6 32  1  0
  6 33  1  0
  7 22  1  0
  7 23  1  0
  8 10  1  0
  8 20  1  0
  8 21  1  0
  9 11  1  0
  9 36  1  0
  9 37  1  0
 10 12  1  0
 10 34  1  0
 10 35  1  0
 11 13  1  0
 11 28  1  0
 11 29  1  0
 12 13  1  0
 12 24  1  0
 12 25  1  0
 13 26  1  0
 13 27  1  0
M  CHG  1   1   1
M  RAD  1   1   2
M  END
$$$$
